<?xml version="1.0" encoding="UTF-8"?>

<!-- generated on 2026-07-02T17:14:48.443694+08:00 by Eclipse SUMO jtrrouter 1.27.0
<jtrrouterConfiguration xmlns:xsi="http://www.w3.org/2001/XMLSchema-instance" xsi:noNamespaceSchemaLocation="http://sumo.dlr.de/xsd/jtrrouterConfiguration.xsd">

    <input>
        <net-file value="/home/wmn/code/research/SingleTSC_TranSimHub/junction_scenarios/SouthKorea_Songdo/./networks/easy.net.xml"/>
        <route-files value="/home/wmn/code/research/SingleTSC_TranSimHub/junction_scenarios/SouthKorea_Songdo/./testflow.trip.xml"/>
        <turn-ratio-files value="/home/wmn/code/research/SingleTSC_TranSimHub/junction_scenarios/SouthKorea_Songdo/./testflow.turndefs.xml"/>
    </input>

    <output>
        <output-file value="/home/wmn/code/research/SingleTSC_TranSimHub/junction_scenarios/SouthKorea_Songdo/./routes/fluctuating_commuter.rou.xml"/>
    </output>

    <processing>
        <randomize-flows value="True"/>
        <accept-all-destinations value="True"/>
    </processing>

    <defaults>
        <departlane value="best"/>
    </defaults>

    <report>
        <no-warnings value="true"/>
    </report>

    <random_number>
        <seed value="777"/>
    </random_number>

</jtrrouterConfiguration>
-->

<routes xmlns:xsi="http://www.w3.org/2001/XMLSchema-instance" xsi:noNamespaceSchemaLocation="http://sumo.dlr.de/xsd/routes_file.xsd">
    <vType id="background" length="5.00" color="220,220,220" tau="1.0"/>
    <vehicle id="E1__0__background.0" type="background" depart="0.03" departLane="best">
        <route edges="E1 989312046#2"/>
    </vehicle>
    <vehicle id="525074961#6__0__background.0" type="background" depart="0.84" departLane="best">
        <route edges="525074961#6 525074961#10 525074961#11"/>
    </vehicle>
    <vehicle id="315156946#0__0__background.0" type="background" depart="3.58" departLane="best">
        <route edges="315156946#0 E2 E3"/>
    </vehicle>
    <vehicle id="525074961#6__0__background.1" type="background" depart="4.16" departLane="best">
        <route edges="525074961#6 E2 E3"/>
    </vehicle>
    <vehicle id="E1__0__background.1" type="background" depart="4.54" departLane="best">
        <route edges="E1 429770748#1"/>
    </vehicle>
    <vehicle id="525074961#6__0__background.2" type="background" depart="5.68" departLane="best">
        <route edges="525074961#6 525074961#10 525074961#11"/>
    </vehicle>
    <vehicle id="525074961#6__0__background.3" type="background" depart="5.99" departLane="best">
        <route edges="525074961#6 525074961#10 525074961#11"/>
    </vehicle>
    <vehicle id="315156946#0__0__background.1" type="background" depart="6.54" departLane="best">
        <route edges="315156946#0 E2 E3"/>
    </vehicle>
    <vehicle id="315156946#0__0__background.2" type="background" depart="6.80" departLane="best">
        <route edges="315156946#0 525074961#10 525074961#11"/>
    </vehicle>
    <vehicle id="525074961#6__0__background.4" type="background" depart="7.71" departLane="best">
        <route edges="525074961#6 525074961#10 525074961#11"/>
    </vehicle>
    <vehicle id="525074961#6__0__background.5" type="background" depart="7.95" departLane="best">
        <route edges="525074961#6 525074961#10 525074961#11"/>
    </vehicle>
    <vehicle id="E1__0__background.2" type="background" depart="9.31" departLane="best">
        <route edges="E1 429770748#1"/>
    </vehicle>
    <vehicle id="315156946#0__0__background.3" type="background" depart="10.82" departLane="best">
        <route edges="315156946#0 525074961#10 525074961#11"/>
    </vehicle>
    <vehicle id="989312046#0__0__background.0" type="background" depart="10.88" departLane="best">
        <route edges="989312046#0 989312046#2"/>
    </vehicle>
    <vehicle id="315156946#0__0__background.4" type="background" depart="11.03" departLane="best">
        <route edges="315156946#0 E2 E3"/>
    </vehicle>
    <vehicle id="315156946#0__0__background.5" type="background" depart="12.32" departLane="best">
        <route edges="315156946#0 525074961#10 525074961#11"/>
    </vehicle>
    <vehicle id="E1__0__background.3" type="background" depart="15.08" departLane="best">
        <route edges="E1 989312046#2"/>
    </vehicle>
    <vehicle id="525074961#6__0__background.6" type="background" depart="15.68" departLane="best">
        <route edges="525074961#6 525074961#10 525074961#11"/>
    </vehicle>
    <vehicle id="989312046#0__0__background.1" type="background" depart="15.93" departLane="best">
        <route edges="989312046#0 429770748#1"/>
    </vehicle>
    <vehicle id="525074961#6__0__background.7" type="background" depart="16.75" departLane="best">
        <route edges="525074961#6 525074961#10 525074961#11"/>
    </vehicle>
    <vehicle id="315156946#0__0__background.6" type="background" depart="17.37" departLane="best">
        <route edges="315156946#0 E2 E3"/>
    </vehicle>
    <vehicle id="315156946#0__0__background.7" type="background" depart="19.28" departLane="best">
        <route edges="315156946#0 989312046#2"/>
    </vehicle>
    <vehicle id="315156946#0__0__background.8" type="background" depart="20.32" departLane="best">
        <route edges="315156946#0 989312046#2"/>
    </vehicle>
    <vehicle id="525074961#6__0__background.8" type="background" depart="23.35" departLane="best">
        <route edges="525074961#6 E2 E3"/>
    </vehicle>
    <vehicle id="525074961#6__0__background.9" type="background" depart="25.22" departLane="best">
        <route edges="525074961#6 525074961#10 525074961#11"/>
    </vehicle>
    <vehicle id="315156946#0__0__background.9" type="background" depart="25.90" departLane="best">
        <route edges="315156946#0 E2 E3"/>
    </vehicle>
    <vehicle id="E1__0__background.4" type="background" depart="26.23" departLane="best">
        <route edges="E1 429770748#1"/>
    </vehicle>
    <vehicle id="E1__0__background.5" type="background" depart="26.40" departLane="best">
        <route edges="E1 429770748#1"/>
    </vehicle>
    <vehicle id="989312046#0__0__background.2" type="background" depart="26.70" departLane="best">
        <route edges="989312046#0 989312046#2"/>
    </vehicle>
    <vehicle id="315156946#0__0__background.10" type="background" depart="26.95" departLane="best">
        <route edges="315156946#0 E2 E3"/>
    </vehicle>
    <vehicle id="525074961#6__0__background.10" type="background" depart="28.29" departLane="best">
        <route edges="525074961#6 525074961#10 525074961#11"/>
    </vehicle>
    <vehicle id="989312046#0__0__background.3" type="background" depart="28.79" departLane="best">
        <route edges="989312046#0 429770748#1"/>
    </vehicle>
    <vehicle id="E1__0__background.6" type="background" depart="30.89" departLane="best">
        <route edges="E1 429770748#1"/>
    </vehicle>
    <vehicle id="525074961#6__0__background.11" type="background" depart="31.08" departLane="best">
        <route edges="525074961#6 429770748#1"/>
    </vehicle>
    <vehicle id="525074961#6__0__background.12" type="background" depart="33.66" departLane="best">
        <route edges="525074961#6 525074961#10 525074961#11"/>
    </vehicle>
    <vehicle id="525074961#6__0__background.13" type="background" depart="35.91" departLane="best">
        <route edges="525074961#6 525074961#10 525074961#11"/>
    </vehicle>
    <vehicle id="989312046#0__0__background.4" type="background" depart="36.79" departLane="best">
        <route edges="989312046#0 E2 E3"/>
    </vehicle>
    <vehicle id="E1__0__background.7" type="background" depart="39.15" departLane="best">
        <route edges="E1 429770748#1"/>
    </vehicle>
    <vehicle id="989312046#0__0__background.5" type="background" depart="40.54" departLane="best">
        <route edges="989312046#0 E2 E3"/>
    </vehicle>
    <vehicle id="315156946#0__0__background.11" type="background" depart="40.85" departLane="best">
        <route edges="315156946#0 525074961#10 525074961#11"/>
    </vehicle>
    <vehicle id="315156946#0__0__background.12" type="background" depart="41.30" departLane="best">
        <route edges="315156946#0 525074961#10 525074961#11"/>
    </vehicle>
    <vehicle id="525074961#6__0__background.14" type="background" depart="43.19" departLane="best">
        <route edges="525074961#6 525074961#10 525074961#11"/>
    </vehicle>
    <vehicle id="315156946#0__0__background.13" type="background" depart="44.46" departLane="best">
        <route edges="315156946#0 989312046#2"/>
    </vehicle>
    <vehicle id="525074961#6__0__background.15" type="background" depart="46.02" departLane="best">
        <route edges="525074961#6 525074961#10 525074961#11"/>
    </vehicle>
    <vehicle id="525074961#6__0__background.16" type="background" depart="46.02" departLane="best">
        <route edges="525074961#6 525074961#10 525074961#11"/>
    </vehicle>
    <vehicle id="989312046#0__0__background.6" type="background" depart="47.92" departLane="best">
        <route edges="989312046#0 989312046#2"/>
    </vehicle>
    <vehicle id="525074961#6__0__background.17" type="background" depart="48.14" departLane="best">
        <route edges="525074961#6 525074961#10 525074961#11"/>
    </vehicle>
    <vehicle id="525074961#6__0__background.18" type="background" depart="48.23" departLane="best">
        <route edges="525074961#6 525074961#10 525074961#11"/>
    </vehicle>
    <vehicle id="E1__0__background.8" type="background" depart="49.14" departLane="best">
        <route edges="E1 429770748#1"/>
    </vehicle>
    <vehicle id="525074961#6__0__background.19" type="background" depart="51.52" departLane="best">
        <route edges="525074961#6 525074961#10 525074961#11"/>
    </vehicle>
    <vehicle id="989312046#0__0__background.7" type="background" depart="52.13" departLane="best">
        <route edges="989312046#0 E2 E3"/>
    </vehicle>
    <vehicle id="525074961#6__0__background.20" type="background" depart="53.45" departLane="best">
        <route edges="525074961#6 525074961#10 525074961#11"/>
    </vehicle>
    <vehicle id="E1__0__background.9" type="background" depart="54.52" departLane="best">
        <route edges="E1 989312046#2"/>
    </vehicle>
    <vehicle id="989312046#0__0__background.8" type="background" depart="54.94" departLane="best">
        <route edges="989312046#0 989312046#2"/>
    </vehicle>
    <vehicle id="525074961#6__0__background.21" type="background" depart="56.15" departLane="best">
        <route edges="525074961#6 525074961#10 525074961#11"/>
    </vehicle>
    <vehicle id="E1__0__background.10" type="background" depart="57.89" departLane="best">
        <route edges="E1 429770748#1"/>
    </vehicle>
    <vehicle id="E1__0__background.11" type="background" depart="59.78" departLane="best">
        <route edges="E1 989312046#2"/>
    </vehicle>
    <vehicle id="525074961#6__1__background.0" type="background" depart="60.09" departLane="best">
        <route edges="525074961#6 525074961#10 525074961#11"/>
    </vehicle>
    <vehicle id="525074961#6__1__background.1" type="background" depart="60.19" departLane="best">
        <route edges="525074961#6 525074961#10 525074961#11"/>
    </vehicle>
    <vehicle id="315156946#0__1__background.0" type="background" depart="61.54" departLane="best">
        <route edges="315156946#0 E2 E3"/>
    </vehicle>
    <vehicle id="315156946#0__1__background.1" type="background" depart="61.72" departLane="best">
        <route edges="315156946#0 525074961#10 525074961#11"/>
    </vehicle>
    <vehicle id="315156946#0__1__background.2" type="background" depart="63.43" departLane="best">
        <route edges="315156946#0 525074961#10 525074961#11"/>
    </vehicle>
    <vehicle id="315156946#0__1__background.3" type="background" depart="63.47" departLane="best">
        <route edges="315156946#0 525074961#10 525074961#11"/>
    </vehicle>
    <vehicle id="525074961#6__1__background.2" type="background" depart="64.84" departLane="best">
        <route edges="525074961#6 525074961#10 525074961#11"/>
    </vehicle>
    <vehicle id="E1__1__background.0" type="background" depart="68.46" departLane="best">
        <route edges="E1 429770748#1"/>
    </vehicle>
    <vehicle id="315156946#0__1__background.4" type="background" depart="70.17" departLane="best">
        <route edges="315156946#0 E2 E3"/>
    </vehicle>
    <vehicle id="989312046#0__1__background.0" type="background" depart="71.26" departLane="best">
        <route edges="989312046#0 E2 E3"/>
    </vehicle>
    <vehicle id="315156946#0__1__background.5" type="background" depart="72.29" departLane="best">
        <route edges="315156946#0 525074961#10 525074961#11"/>
    </vehicle>
    <vehicle id="315156946#0__1__background.6" type="background" depart="72.41" departLane="best">
        <route edges="315156946#0 989312046#2"/>
    </vehicle>
    <vehicle id="315156946#0__1__background.7" type="background" depart="73.67" departLane="best">
        <route edges="315156946#0 525074961#10 525074961#11"/>
    </vehicle>
    <vehicle id="525074961#6__1__background.3" type="background" depart="74.01" departLane="best">
        <route edges="525074961#6 525074961#10 525074961#11"/>
    </vehicle>
    <vehicle id="E1__1__background.1" type="background" depart="74.36" departLane="best">
        <route edges="E1 989312046#2"/>
    </vehicle>
    <vehicle id="989312046#0__1__background.1" type="background" depart="75.59" departLane="best">
        <route edges="989312046#0 989312046#2"/>
    </vehicle>
    <vehicle id="E1__1__background.2" type="background" depart="76.26" departLane="best">
        <route edges="E1 429770748#1"/>
    </vehicle>
    <vehicle id="315156946#0__1__background.8" type="background" depart="76.46" departLane="best">
        <route edges="315156946#0 E2 E3"/>
    </vehicle>
    <vehicle id="315156946#0__1__background.9" type="background" depart="76.73" departLane="best">
        <route edges="315156946#0 525074961#10 525074961#11"/>
    </vehicle>
    <vehicle id="989312046#0__1__background.2" type="background" depart="78.84" departLane="best">
        <route edges="989312046#0 989312046#2"/>
    </vehicle>
    <vehicle id="315156946#0__1__background.10" type="background" depart="80.50" departLane="best">
        <route edges="315156946#0 E2 E3"/>
    </vehicle>
    <vehicle id="525074961#6__1__background.4" type="background" depart="83.16" departLane="best">
        <route edges="525074961#6 E2 E3"/>
    </vehicle>
    <vehicle id="E1__1__background.3" type="background" depart="84.69" departLane="best">
        <route edges="E1 429770748#1"/>
    </vehicle>
    <vehicle id="525074961#6__1__background.5" type="background" depart="85.80" departLane="best">
        <route edges="525074961#6 429770748#1"/>
    </vehicle>
    <vehicle id="525074961#6__1__background.6" type="background" depart="85.86" departLane="best">
        <route edges="525074961#6 525074961#10 525074961#11"/>
    </vehicle>
    <vehicle id="315156946#0__1__background.11" type="background" depart="87.35" departLane="best">
        <route edges="315156946#0 525074961#10 525074961#11"/>
    </vehicle>
    <vehicle id="E1__1__background.4" type="background" depart="88.54" departLane="best">
        <route edges="E1 429770748#1"/>
    </vehicle>
    <vehicle id="989312046#0__1__background.3" type="background" depart="89.83" departLane="best">
        <route edges="989312046#0 989312046#2"/>
    </vehicle>
    <vehicle id="E1__1__background.5" type="background" depart="90.51" departLane="best">
        <route edges="E1 989312046#2"/>
    </vehicle>
    <vehicle id="525074961#6__1__background.7" type="background" depart="91.85" departLane="best">
        <route edges="525074961#6 429770748#1"/>
    </vehicle>
    <vehicle id="E1__1__background.6" type="background" depart="91.94" departLane="best">
        <route edges="E1 429770748#1"/>
    </vehicle>
    <vehicle id="525074961#6__1__background.8" type="background" depart="95.70" departLane="best">
        <route edges="525074961#6 525074961#10 525074961#11"/>
    </vehicle>
    <vehicle id="E1__1__background.7" type="background" depart="97.85" departLane="best">
        <route edges="E1 429770748#1"/>
    </vehicle>
    <vehicle id="315156946#0__1__background.12" type="background" depart="97.85" departLane="best">
        <route edges="315156946#0 E2 E3"/>
    </vehicle>
    <vehicle id="525074961#6__1__background.9" type="background" depart="99.52" departLane="best">
        <route edges="525074961#6 429770748#1"/>
    </vehicle>
    <vehicle id="E1__1__background.8" type="background" depart="99.82" departLane="best">
        <route edges="E1 429770748#1"/>
    </vehicle>
    <vehicle id="525074961#6__1__background.10" type="background" depart="102.11" departLane="best">
        <route edges="525074961#6 525074961#10 525074961#11"/>
    </vehicle>
    <vehicle id="525074961#6__1__background.11" type="background" depart="102.53" departLane="best">
        <route edges="525074961#6 525074961#10 525074961#11"/>
    </vehicle>
    <vehicle id="989312046#0__1__background.4" type="background" depart="102.87" departLane="best">
        <route edges="989312046#0 989312046#2"/>
    </vehicle>
    <vehicle id="989312046#0__1__background.5" type="background" depart="103.28" departLane="best">
        <route edges="989312046#0 989312046#2"/>
    </vehicle>
    <vehicle id="525074961#6__1__background.12" type="background" depart="103.32" departLane="best">
        <route edges="525074961#6 525074961#10 525074961#11"/>
    </vehicle>
    <vehicle id="525074961#6__1__background.13" type="background" depart="103.99" departLane="best">
        <route edges="525074961#6 E2 E3"/>
    </vehicle>
    <vehicle id="525074961#6__1__background.14" type="background" depart="104.08" departLane="best">
        <route edges="525074961#6 525074961#10 525074961#11"/>
    </vehicle>
    <vehicle id="525074961#6__1__background.15" type="background" depart="104.98" departLane="best">
        <route edges="525074961#6 429770748#1"/>
    </vehicle>
    <vehicle id="525074961#6__1__background.16" type="background" depart="105.08" departLane="best">
        <route edges="525074961#6 525074961#10 525074961#11"/>
    </vehicle>
    <vehicle id="E1__1__background.9" type="background" depart="105.09" departLane="best">
        <route edges="E1 429770748#1"/>
    </vehicle>
    <vehicle id="989312046#0__1__background.6" type="background" depart="105.90" departLane="best">
        <route edges="989312046#0 989312046#2"/>
    </vehicle>
    <vehicle id="525074961#6__1__background.17" type="background" depart="107.20" departLane="best">
        <route edges="525074961#6 525074961#10 525074961#11"/>
    </vehicle>
    <vehicle id="525074961#6__1__background.18" type="background" depart="107.92" departLane="best">
        <route edges="525074961#6 429770748#1"/>
    </vehicle>
    <vehicle id="525074961#6__1__background.19" type="background" depart="110.44" departLane="best">
        <route edges="525074961#6 429770748#1"/>
    </vehicle>
    <vehicle id="315156946#0__1__background.13" type="background" depart="110.49" departLane="best">
        <route edges="315156946#0 525074961#10 525074961#11"/>
    </vehicle>
    <vehicle id="989312046#0__1__background.7" type="background" depart="111.42" departLane="best">
        <route edges="989312046#0 989312046#2"/>
    </vehicle>
    <vehicle id="525074961#6__1__background.20" type="background" depart="112.24" departLane="best">
        <route edges="525074961#6 E2 E3"/>
    </vehicle>
    <vehicle id="989312046#0__1__background.8" type="background" depart="113.47" departLane="best">
        <route edges="989312046#0 989312046#2"/>
    </vehicle>
    <vehicle id="E1__1__background.10" type="background" depart="113.82" departLane="best">
        <route edges="E1 429770748#1"/>
    </vehicle>
    <vehicle id="E1__1__background.11" type="background" depart="117.22" departLane="best">
        <route edges="E1 429770748#1"/>
    </vehicle>
    <vehicle id="525074961#6__1__background.21" type="background" depart="118.72" departLane="best">
        <route edges="525074961#6 525074961#10 525074961#11"/>
    </vehicle>
    <vehicle id="315156946#0__2__background.0" type="background" depart="120.02" departLane="best">
        <route edges="315156946#0 E2 E3"/>
    </vehicle>
    <vehicle id="989312046#0__2__background.0" type="background" depart="120.29" departLane="best">
        <route edges="989312046#0 989312046#2"/>
    </vehicle>
    <vehicle id="525074961#6__2__background.0" type="background" depart="121.00" departLane="best">
        <route edges="525074961#6 525074961#10 525074961#11"/>
    </vehicle>
    <vehicle id="315156946#0__2__background.1" type="background" depart="121.48" departLane="best">
        <route edges="315156946#0 E2 E3"/>
    </vehicle>
    <vehicle id="315156946#0__2__background.2" type="background" depart="122.31" departLane="best">
        <route edges="315156946#0 E2 E3"/>
    </vehicle>
    <vehicle id="E1__2__background.0" type="background" depart="123.60" departLane="best">
        <route edges="E1 525074961#10 525074961#11"/>
    </vehicle>
    <vehicle id="525074961#6__2__background.1" type="background" depart="125.41" departLane="best">
        <route edges="525074961#6 525074961#10 525074961#11"/>
    </vehicle>
    <vehicle id="989312046#0__2__background.1" type="background" depart="128.53" departLane="best">
        <route edges="989312046#0 429770748#1"/>
    </vehicle>
    <vehicle id="E1__2__background.1" type="background" depart="128.79" departLane="best">
        <route edges="E1 429770748#1"/>
    </vehicle>
    <vehicle id="E1__2__background.2" type="background" depart="128.82" departLane="best">
        <route edges="E1 989312046#2"/>
    </vehicle>
    <vehicle id="525074961#6__2__background.2" type="background" depart="129.59" departLane="best">
        <route edges="525074961#6 525074961#10 525074961#11"/>
    </vehicle>
    <vehicle id="315156946#0__2__background.3" type="background" depart="129.59" departLane="best">
        <route edges="315156946#0 E2 E3"/>
    </vehicle>
    <vehicle id="525074961#6__2__background.3" type="background" depart="133.75" departLane="best">
        <route edges="525074961#6 525074961#10 525074961#11"/>
    </vehicle>
    <vehicle id="989312046#0__2__background.2" type="background" depart="134.15" departLane="best">
        <route edges="989312046#0 989312046#2"/>
    </vehicle>
    <vehicle id="525074961#6__2__background.4" type="background" depart="136.61" departLane="best">
        <route edges="525074961#6 525074961#10 525074961#11"/>
    </vehicle>
    <vehicle id="525074961#6__2__background.5" type="background" depart="137.09" departLane="best">
        <route edges="525074961#6 525074961#10 525074961#11"/>
    </vehicle>
    <vehicle id="989312046#0__2__background.3" type="background" depart="137.86" departLane="best">
        <route edges="989312046#0 E2 E3"/>
    </vehicle>
    <vehicle id="E1__2__background.3" type="background" depart="138.82" departLane="best">
        <route edges="E1 525074961#10 525074961#11"/>
    </vehicle>
    <vehicle id="315156946#0__2__background.4" type="background" depart="139.11" departLane="best">
        <route edges="315156946#0 525074961#10 525074961#11"/>
    </vehicle>
    <vehicle id="315156946#0__2__background.5" type="background" depart="139.40" departLane="best">
        <route edges="315156946#0 E2 E3"/>
    </vehicle>
    <vehicle id="989312046#0__2__background.4" type="background" depart="139.56" departLane="best">
        <route edges="989312046#0 989312046#2"/>
    </vehicle>
    <vehicle id="E1__2__background.4" type="background" depart="141.15" departLane="best">
        <route edges="E1 989312046#2"/>
    </vehicle>
    <vehicle id="E1__2__background.5" type="background" depart="141.25" departLane="best">
        <route edges="E1 429770748#1"/>
    </vehicle>
    <vehicle id="315156946#0__2__background.6" type="background" depart="143.38" departLane="best">
        <route edges="315156946#0 525074961#10 525074961#11"/>
    </vehicle>
    <vehicle id="989312046#0__2__background.5" type="background" depart="144.00" departLane="best">
        <route edges="989312046#0 989312046#2"/>
    </vehicle>
    <vehicle id="525074961#6__2__background.6" type="background" depart="145.18" departLane="best">
        <route edges="525074961#6 525074961#10 525074961#11"/>
    </vehicle>
    <vehicle id="989312046#0__2__background.6" type="background" depart="145.38" departLane="best">
        <route edges="989312046#0 E2 E3"/>
    </vehicle>
    <vehicle id="315156946#0__2__background.7" type="background" depart="145.85" departLane="best">
        <route edges="315156946#0 525074961#10 525074961#11"/>
    </vehicle>
    <vehicle id="525074961#6__2__background.7" type="background" depart="150.15" departLane="best">
        <route edges="525074961#6 525074961#10 525074961#11"/>
    </vehicle>
    <vehicle id="315156946#0__2__background.8" type="background" depart="151.41" departLane="best">
        <route edges="315156946#0 E2 E3"/>
    </vehicle>
    <vehicle id="989312046#0__2__background.7" type="background" depart="151.76" departLane="best">
        <route edges="989312046#0 989312046#2"/>
    </vehicle>
    <vehicle id="989312046#0__2__background.8" type="background" depart="152.29" departLane="best">
        <route edges="989312046#0 989312046#2"/>
    </vehicle>
    <vehicle id="525074961#6__2__background.8" type="background" depart="153.16" departLane="best">
        <route edges="525074961#6 525074961#10 525074961#11"/>
    </vehicle>
    <vehicle id="315156946#0__2__background.9" type="background" depart="153.35" departLane="best">
        <route edges="315156946#0 E2 E3"/>
    </vehicle>
    <vehicle id="315156946#0__2__background.10" type="background" depart="153.66" departLane="best">
        <route edges="315156946#0 E2 E3"/>
    </vehicle>
    <vehicle id="E1__2__background.6" type="background" depart="154.31" departLane="best">
        <route edges="E1 525074961#10 525074961#11"/>
    </vehicle>
    <vehicle id="315156946#0__2__background.11" type="background" depart="154.35" departLane="best">
        <route edges="315156946#0 E2 E3"/>
    </vehicle>
    <vehicle id="E1__2__background.7" type="background" depart="154.60" departLane="best">
        <route edges="E1 989312046#2"/>
    </vehicle>
    <vehicle id="989312046#0__2__background.9" type="background" depart="155.15" departLane="best">
        <route edges="989312046#0 429770748#1"/>
    </vehicle>
    <vehicle id="E1__2__background.8" type="background" depart="156.68" departLane="best">
        <route edges="E1 525074961#10 525074961#11"/>
    </vehicle>
    <vehicle id="E1__2__background.9" type="background" depart="157.11" departLane="best">
        <route edges="E1 525074961#10 525074961#11"/>
    </vehicle>
    <vehicle id="525074961#6__2__background.9" type="background" depart="159.77" departLane="best">
        <route edges="525074961#6 E2 E3"/>
    </vehicle>
    <vehicle id="525074961#6__2__background.10" type="background" depart="160.90" departLane="best">
        <route edges="525074961#6 525074961#10 525074961#11"/>
    </vehicle>
    <vehicle id="989312046#0__2__background.10" type="background" depart="162.62" departLane="best">
        <route edges="989312046#0 E2 E3"/>
    </vehicle>
    <vehicle id="315156946#0__2__background.12" type="background" depart="163.50" departLane="best">
        <route edges="315156946#0 989312046#2"/>
    </vehicle>
    <vehicle id="E1__2__background.10" type="background" depart="164.11" departLane="best">
        <route edges="E1 429770748#1"/>
    </vehicle>
    <vehicle id="315156946#0__2__background.13" type="background" depart="164.42" departLane="best">
        <route edges="315156946#0 E2 E3"/>
    </vehicle>
    <vehicle id="E1__2__background.11" type="background" depart="164.49" departLane="best">
        <route edges="E1 429770748#1"/>
    </vehicle>
    <vehicle id="E1__2__background.12" type="background" depart="165.63" departLane="best">
        <route edges="E1 429770748#1"/>
    </vehicle>
    <vehicle id="525074961#6__2__background.11" type="background" depart="165.73" departLane="best">
        <route edges="525074961#6 525074961#10 525074961#11"/>
    </vehicle>
    <vehicle id="315156946#0__2__background.14" type="background" depart="168.77" departLane="best">
        <route edges="315156946#0 989312046#2"/>
    </vehicle>
    <vehicle id="E1__2__background.13" type="background" depart="168.93" departLane="best">
        <route edges="E1 429770748#1"/>
    </vehicle>
    <vehicle id="989312046#0__2__background.11" type="background" depart="169.49" departLane="best">
        <route edges="989312046#0 429770748#1"/>
    </vehicle>
    <vehicle id="525074961#6__2__background.12" type="background" depart="170.83" departLane="best">
        <route edges="525074961#6 429770748#1"/>
    </vehicle>
    <vehicle id="E1__2__background.14" type="background" depart="171.29" departLane="best">
        <route edges="E1 429770748#1"/>
    </vehicle>
    <vehicle id="525074961#6__2__background.13" type="background" depart="171.40" departLane="best">
        <route edges="525074961#6 525074961#10 525074961#11"/>
    </vehicle>
    <vehicle id="525074961#6__2__background.14" type="background" depart="171.75" departLane="best">
        <route edges="525074961#6 E2 E3"/>
    </vehicle>
    <vehicle id="525074961#6__2__background.15" type="background" depart="172.84" departLane="best">
        <route edges="525074961#6 525074961#10 525074961#11"/>
    </vehicle>
    <vehicle id="525074961#6__2__background.16" type="background" depart="173.90" departLane="best">
        <route edges="525074961#6 525074961#10 525074961#11"/>
    </vehicle>
    <vehicle id="525074961#6__2__background.17" type="background" depart="173.95" departLane="best">
        <route edges="525074961#6 525074961#10 525074961#11"/>
    </vehicle>