<?xml version="1.0" encoding="UTF-8"?>

<!-- generated on 2026-07-02T17:14:48.836110+08:00 by Eclipse SUMO jtrrouter 1.27.0
<jtrrouterConfiguration xmlns:xsi="http://www.w3.org/2001/XMLSchema-instance" xsi:noNamespaceSchemaLocation="http://sumo.dlr.de/xsd/jtrrouterConfiguration.xsd">

    <input>
        <net-file value="/home/wmn/code/research/SingleTSC_TranSimHub/junction_scenarios/SouthKorea_Songdo/./networks/easy.net.xml"/>
        <route-files value="/home/wmn/code/research/SingleTSC_TranSimHub/junction_scenarios/SouthKorea_Songdo/./testflow.trip.xml"/>
        <turn-ratio-files value="/home/wmn/code/research/SingleTSC_TranSimHub/junction_scenarios/SouthKorea_Songdo/./testflow.turndefs.xml"/>
    </input>

    <output>
        <output-file value="/home/wmn/code/research/SingleTSC_TranSimHub/junction_scenarios/SouthKorea_Songdo/./routes/increasing_demand.rou.xml"/>
    </output>

    <processing>
        <randomize-flows value="True"/>
        <accept-all-destinations value="True"/>
    </processing>

    <defaults>
        <departlane value="best"/>
    </defaults>

    <report>
        <no-warnings value="true"/>
    </report>

    <random_number>
        <seed value="777"/>
    </random_number>

</jtrrouterConfiguration>
-->

<routes xmlns:xsi="http://www.w3.org/2001/XMLSchema-instance" xsi:noNamespaceSchemaLocation="http://sumo.dlr.de/xsd/routes_file.xsd">
    <vType id="background" length="5.00" color="220,220,220" tau="1.0"/>
    <vehicle id="E1__0__background.0" type="background" depart="0.84" departLane="best">
        <route edges="E1 989312046#2"/>
    </vehicle>
    <vehicle id="315156946#0__0__background.0" type="background" depart="3.58" departLane="best">
        <route edges="315156946#0 E2 E3"/>
    </vehicle>
    <vehicle id="E1__0__background.1" type="background" depart="4.16" departLane="best">
        <route edges="E1 429770748#1"/>
    </vehicle>
    <vehicle id="525074961#6__0__background.0" type="background" depart="5.68" departLane="best">
        <route edges="525074961#6 525074961#10 525074961#11"/>
    </vehicle>
    <vehicle id="E1__0__background.2" type="background" depart="5.99" departLane="best">
        <route edges="E1 429770748#1"/>
    </vehicle>
    <vehicle id="315156946#0__0__background.1" type="background" depart="6.54" departLane="best">
        <route edges="315156946#0 E2 E3"/>
    </vehicle>
    <vehicle id="315156946#0__0__background.2" type="background" depart="6.80" departLane="best">
        <route edges="315156946#0 E2 E3"/>
    </vehicle>
    <vehicle id="525074961#6__0__background.1" type="background" depart="7.71" departLane="best">
        <route edges="525074961#6 525074961#10 525074961#11"/>
    </vehicle>
    <vehicle id="E1__0__background.3" type="background" depart="7.95" departLane="best">
        <route edges="E1 429770748#1"/>
    </vehicle>
    <vehicle id="525074961#6__0__background.2" type="background" depart="10.82" departLane="best">
        <route edges="525074961#6 E2 E3"/>
    </vehicle>
    <vehicle id="989312046#0__0__background.0" type="background" depart="10.88" departLane="best">
        <route edges="989312046#0 989312046#2"/>
    </vehicle>
    <vehicle id="315156946#0__0__background.3" type="background" depart="11.03" departLane="best">
        <route edges="315156946#0 E2 E3"/>
    </vehicle>
    <vehicle id="315156946#0__0__background.4" type="background" depart="12.32" departLane="best">
        <route edges="315156946#0 E2 E3"/>
    </vehicle>
    <vehicle id="E1__0__background.4" type="background" depart="15.68" departLane="best">
        <route edges="E1 429770748#1"/>
    </vehicle>
    <vehicle id="989312046#0__0__background.1" type="background" depart="15.93" departLane="best">
        <route edges="989312046#0 989312046#2"/>
    </vehicle>
    <vehicle id="E1__0__background.5" type="background" depart="16.75" departLane="best">
        <route edges="E1 989312046#2"/>
    </vehicle>
    <vehicle id="315156946#0__0__background.5" type="background" depart="17.37" departLane="best">
        <route edges="315156946#0 E2 E3"/>
    </vehicle>
    <vehicle id="525074961#6__0__background.3" type="background" depart="19.28" departLane="best">
        <route edges="525074961#6 429770748#1"/>
    </vehicle>
    <vehicle id="525074961#6__0__background.4" type="background" depart="20.32" departLane="best">
        <route edges="525074961#6 525074961#10 525074961#11"/>
    </vehicle>
    <vehicle id="E1__0__background.6" type="background" depart="23.35" departLane="best">
        <route edges="E1 989312046#2"/>
    </vehicle>
    <vehicle id="315156946#0__0__background.6" type="background" depart="25.90" departLane="best">
        <route edges="315156946#0 525074961#10 525074961#11"/>
    </vehicle>
    <vehicle id="989312046#0__0__background.2" type="background" depart="26.70" departLane="best">
        <route edges="989312046#0 E2 E3"/>
    </vehicle>
    <vehicle id="525074961#6__0__background.5" type="background" depart="26.95" departLane="best">
        <route edges="525074961#6 525074961#10 525074961#11"/>
    </vehicle>
    <vehicle id="E1__0__background.7" type="background" depart="28.29" departLane="best">
        <route edges="E1 429770748#1"/>
    </vehicle>
    <vehicle id="989312046#0__0__background.3" type="background" depart="28.79" departLane="best">
        <route edges="989312046#0 E2 E3"/>
    </vehicle>
    <vehicle id="E1__0__background.8" type="background" depart="33.66" departLane="best">
        <route edges="E1 429770748#1"/>
    </vehicle>
    <vehicle id="525074961#6__0__background.6" type="background" depart="35.91" departLane="best">
        <route edges="525074961#6 525074961#10 525074961#11"/>
    </vehicle>
    <vehicle id="989312046#0__0__background.4" type="background" depart="36.79" departLane="best">
        <route edges="989312046#0 E2 E3"/>
    </vehicle>
    <vehicle id="989312046#0__0__background.5" type="background" depart="40.54" departLane="best">
        <route edges="989312046#0 429770748#1"/>
    </vehicle>
    <vehicle id="315156946#0__0__background.7" type="background" depart="40.85" departLane="best">
        <route edges="315156946#0 E2 E3"/>
    </vehicle>
    <vehicle id="525074961#6__0__background.7" type="background" depart="41.30" departLane="best">
        <route edges="525074961#6 525074961#10 525074961#11"/>
    </vehicle>
    <vehicle id="E1__0__background.9" type="background" depart="43.19" departLane="best">
        <route edges="E1 525074961#10 525074961#11"/>
    </vehicle>
    <vehicle id="315156946#0__0__background.8" type="background" depart="44.46" departLane="best">
        <route edges="315156946#0 E2 E3"/>
    </vehicle>
    <vehicle id="E1__0__background.10" type="background" depart="46.02" departLane="best">
        <route edges="E1 429770748#1"/>
    </vehicle>
    <vehicle id="E1__0__background.11" type="background" depart="46.02" departLane="best">
        <route edges="E1 525074961#10 525074961#11"/>
    </vehicle>
    <vehicle id="989312046#0__0__background.6" type="background" depart="47.92" departLane="best">
        <route edges="989312046#0 989312046#2"/>
    </vehicle>
    <vehicle id="525074961#6__0__background.8" type="background" depart="48.23" departLane="best">
        <route edges="525074961#6 525074961#10 525074961#11"/>
    </vehicle>
    <vehicle id="E1__0__background.12" type="background" depart="51.52" departLane="best">
        <route edges="E1 525074961#10 525074961#11"/>
    </vehicle>
    <vehicle id="989312046#0__0__background.7" type="background" depart="52.13" departLane="best">
        <route edges="989312046#0 989312046#2"/>
    </vehicle>
    <vehicle id="E1__0__background.13" type="background" depart="53.45" departLane="best">
        <route edges="E1 525074961#10 525074961#11"/>
    </vehicle>
    <vehicle id="989312046#0__0__background.8" type="background" depart="54.94" departLane="best">
        <route edges="989312046#0 989312046#2"/>
    </vehicle>
    <vehicle id="525074961#6__0__background.9" type="background" depart="56.15" departLane="best">
        <route edges="525074961#6 E2 E3"/>
    </vehicle>
    <vehicle id="315156946#0__1__background.0" type="background" depart="60.03" departLane="best">
        <route edges="315156946#0 525074961#10 525074961#11"/>
    </vehicle>
    <vehicle id="525074961#6__1__background.0" type="background" depart="61.54" departLane="best">
        <route edges="525074961#6 525074961#10 525074961#11"/>
    </vehicle>
    <vehicle id="E1__1__background.0" type="background" depart="61.72" departLane="best">
        <route edges="E1 989312046#2"/>
    </vehicle>
    <vehicle id="525074961#6__1__background.1" type="background" depart="63.43" departLane="best">
        <route edges="525074961#6 525074961#10 525074961#11"/>
    </vehicle>
    <vehicle id="E1__1__background.1" type="background" depart="63.47" departLane="best">
        <route edges="E1 989312046#2"/>
    </vehicle>
    <vehicle id="989312046#0__1__background.0" type="background" depart="64.54" departLane="best">
        <route edges="989312046#0 989312046#2"/>
    </vehicle>
    <vehicle id="315156946#0__1__background.1" type="background" depart="69.31" departLane="best">
        <route edges="315156946#0 E2 E3"/>
    </vehicle>
    <vehicle id="E1__1__background.2" type="background" depart="70.17" departLane="best">
        <route edges="E1 429770748#1"/>
    </vehicle>
    <vehicle id="315156946#0__1__background.2" type="background" depart="71.26" departLane="best">
        <route edges="315156946#0 525074961#10 525074961#11"/>
    </vehicle>
    <vehicle id="E1__1__background.3" type="background" depart="72.29" departLane="best">
        <route edges="E1 429770748#1"/>
    </vehicle>
    <vehicle id="E1__1__background.4" type="background" depart="72.41" departLane="best">
        <route edges="E1 429770748#1"/>
    </vehicle>
    <vehicle id="525074961#6__1__background.2" type="background" depart="73.67" departLane="best">
        <route edges="525074961#6 525074961#10 525074961#11"/>
    </vehicle>
    <vehicle id="E1__1__background.5" type="background" depart="74.01" departLane="best">
        <route edges="E1 525074961#10 525074961#11"/>
    </vehicle>
    <vehicle id="315156946#0__1__background.3" type="background" depart="75.08" departLane="best">
        <route edges="315156946#0 525074961#10 525074961#11"/>
    </vehicle>
    <vehicle id="525074961#6__1__background.3" type="background" depart="75.59" departLane="best">
        <route edges="525074961#6 525074961#10 525074961#11"/>
    </vehicle>
    <vehicle id="525074961#6__1__background.4" type="background" depart="76.46" departLane="best">
        <route edges="525074961#6 429770748#1"/>
    </vehicle>
    <vehicle id="E1__1__background.6" type="background" depart="76.73" departLane="best">
        <route edges="E1 429770748#1"/>
    </vehicle>
    <vehicle id="525074961#6__1__background.5" type="background" depart="78.84" departLane="best">
        <route edges="525074961#6 525074961#10 525074961#11"/>
    </vehicle>
    <vehicle id="E1__1__background.7" type="background" depart="80.50" departLane="best">
        <route edges="E1 429770748#1"/>
    </vehicle>
    <vehicle id="E1__1__background.8" type="background" depart="83.16" departLane="best">
        <route edges="E1 525074961#10 525074961#11"/>
    </vehicle>
    <vehicle id="989312046#0__1__background.1" type="background" depart="85.22" departLane="best">
        <route edges="989312046#0 429770748#1"/>
    </vehicle>
    <vehicle id="989312046#0__1__background.2" type="background" depart="86.23" departLane="best">
        <route edges="989312046#0 429770748#1"/>
    </vehicle>
    <vehicle id="989312046#0__1__background.3" type="background" depart="86.40" departLane="best">
        <route edges="989312046#0 989312046#2"/>
    </vehicle>
    <vehicle id="E1__1__background.9" type="background" depart="87.35" departLane="best">
        <route edges="E1 429770748#1"/>
    </vehicle>
    <vehicle id="525074961#6__1__background.6" type="background" depart="89.83" departLane="best">
        <route edges="525074961#6 525074961#10 525074961#11"/>
    </vehicle>
    <vehicle id="989312046#0__1__background.4" type="background" depart="90.89" departLane="best">
        <route edges="989312046#0 E2 E3"/>
    </vehicle>
    <vehicle id="989312046#0__1__background.5" type="background" depart="91.08" departLane="best">
        <route edges="989312046#0 989312046#2"/>
    </vehicle>
    <vehicle id="E1__1__background.10" type="background" depart="97.85" departLane="best">
        <route edges="E1 989312046#2"/>
    </vehicle>
    <vehicle id="989312046#0__1__background.6" type="background" depart="99.15" departLane="best">
        <route edges="989312046#0 E2 E3"/>
    </vehicle>
    <vehicle id="525074961#6__1__background.7" type="background" depart="102.87" departLane="best">
        <route edges="525074961#6 429770748#1"/>
    </vehicle>
    <vehicle id="525074961#6__1__background.8" type="background" depart="103.28" departLane="best">
        <route edges="525074961#6 429770748#1"/>
    </vehicle>
    <vehicle id="E1__1__background.11" type="background" depart="104.98" departLane="best">
        <route edges="E1 525074961#10 525074961#11"/>
    </vehicle>
    <vehicle id="525074961#6__1__background.9" type="background" depart="105.90" departLane="best">
        <route edges="525074961#6 525074961#10 525074961#11"/>
    </vehicle>
    <vehicle id="E1__1__background.12" type="background" depart="107.92" departLane="best">
        <route edges="E1 429770748#1"/>
    </vehicle>
    <vehicle id="989312046#0__1__background.7" type="background" depart="108.14" departLane="best">
        <route edges="989312046#0 429770748#1"/>
    </vehicle>
    <vehicle id="315156946#0__1__background.4" type="background" depart="109.14" departLane="best">
        <route edges="315156946#0 E2 E3"/>
    </vehicle>
    <vehicle id="E1__1__background.13" type="background" depart="110.49" departLane="best">
        <route edges="E1 429770748#1"/>
    </vehicle>
    <vehicle id="315156946#0__1__background.5" type="background" depart="111.42" departLane="best">
        <route edges="315156946#0 989312046#2"/>
    </vehicle>
    <vehicle id="315156946#0__1__background.6" type="background" depart="113.47" departLane="best">
        <route edges="315156946#0 525074961#10 525074961#11"/>
    </vehicle>
    <vehicle id="315156946#0__1__background.7" type="background" depart="114.52" departLane="best">
        <route edges="315156946#0 E2 E3"/>
    </vehicle>
    <vehicle id="315156946#0__1__background.8" type="background" depart="117.89" departLane="best">
        <route edges="315156946#0 989312046#2"/>
    </vehicle>
    <vehicle id="989312046#0__1__background.8" type="background" depart="119.78" departLane="best">
        <route edges="989312046#0 989312046#2"/>
    </vehicle>
    <vehicle id="E1__2__background.0" type="background" depart="120.02" departLane="best">
        <route edges="E1 989312046#2"/>
    </vehicle>
    <vehicle id="989312046#0__2__background.0" type="background" depart="120.09" departLane="best">
        <route edges="989312046#0 989312046#2"/>
    </vehicle>
    <vehicle id="989312046#0__2__background.1" type="background" depart="120.19" departLane="best">
        <route edges="989312046#0 989312046#2"/>
    </vehicle>
    <vehicle id="525074961#6__2__background.0" type="background" depart="120.29" departLane="best">
        <route edges="525074961#6 525074961#10 525074961#11"/>
    </vehicle>
    <vehicle id="E1__2__background.1" type="background" depart="121.48" departLane="best">
        <route edges="E1 429770748#1"/>
    </vehicle>
    <vehicle id="E1__2__background.2" type="background" depart="122.31" departLane="best">
        <route edges="E1 429770748#1"/>
    </vehicle>
    <vehicle id="315156946#0__2__background.0" type="background" depart="124.84" departLane="best">
        <route edges="315156946#0 E2 E3"/>
    </vehicle>
    <vehicle id="525074961#6__2__background.1" type="background" depart="128.46" departLane="best">
        <route edges="525074961#6 E2 E3"/>
    </vehicle>
    <vehicle id="525074961#6__2__background.2" type="background" depart="128.53" departLane="best">
        <route edges="525074961#6 429770748#1"/>
    </vehicle>
    <vehicle id="E1__2__background.3" type="background" depart="129.59" departLane="best">
        <route edges="E1 429770748#1"/>
    </vehicle>
    <vehicle id="525074961#6__2__background.3" type="background" depart="134.15" departLane="best">
        <route edges="525074961#6 429770748#1"/>
    </vehicle>
    <vehicle id="315156946#0__2__background.1" type="background" depart="134.36" departLane="best">
        <route edges="315156946#0 E2 E3"/>
    </vehicle>
    <vehicle id="315156946#0__2__background.2" type="background" depart="136.26" departLane="best">
        <route edges="315156946#0 525074961#10 525074961#11"/>
    </vehicle>
    <vehicle id="525074961#6__2__background.4" type="background" depart="137.86" departLane="best">
        <route edges="525074961#6 525074961#10 525074961#11"/>
    </vehicle>
    <vehicle id="E1__2__background.4" type="background" depart="139.11" departLane="best">
        <route edges="E1 429770748#1"/>
    </vehicle>
    <vehicle id="E1__2__background.5" type="background" depart="139.40" departLane="best">
        <route edges="E1 989312046#2"/>
    </vehicle>
    <vehicle id="525074961#6__2__background.5" type="background" depart="139.56" departLane="best">
        <route edges="525074961#6 525074961#10 525074961#11"/>
    </vehicle>
    <vehicle id="E1__2__background.6" type="background" depart="143.38" departLane="best">
        <route edges="E1 429770748#1"/>
    </vehicle>
    <vehicle id="525074961#6__2__background.6" type="background" depart="144.00" departLane="best">
        <route edges="525074961#6 525074961#10 525074961#11"/>
    </vehicle>
    <vehicle id="315156946#0__2__background.3" type="background" depart="144.69" departLane="best">
        <route edges="315156946#0 E2 E3"/>
    </vehicle>
    <vehicle id="525074961#6__2__background.7" type="background" depart="145.38" departLane="best">
        <route edges="525074961#6 525074961#10 525074961#11"/>
    </vehicle>
    <vehicle id="989312046#0__2__background.2" type="background" depart="145.80" departLane="best">
        <route edges="989312046#0 989312046#2"/>
    </vehicle>
    <vehicle id="E1__2__background.7" type="background" depart="145.85" departLane="best">
        <route edges="E1 429770748#1"/>
    </vehicle>
    <vehicle id="989312046#0__2__background.3" type="background" depart="145.86" departLane="best">
        <route edges="989312046#0 989312046#2"/>
    </vehicle>
    <vehicle id="525074961#6__2__background.8" type="background" depart="148.54" departLane="best">
        <route edges="525074961#6 525074961#10 525074961#11"/>
    </vehicle>
    <vehicle id="315156946#0__2__background.4" type="background" depart="150.51" departLane="best">
        <route edges="315156946#0 E2 E3"/>
    </vehicle>
    <vehicle id="E1__2__background.8" type="background" depart="151.41" departLane="best">
        <route edges="E1 429770748#1"/>
    </vehicle>
    <vehicle id="525074961#6__2__background.9" type="background" depart="151.76" departLane="best">
        <route edges="525074961#6 525074961#10 525074961#11"/>
    </vehicle>
    <vehicle id="989312046#0__2__background.4" type="background" depart="151.85" departLane="best">
        <route edges="989312046#0 429770748#1"/>
    </vehicle>
    <vehicle id="315156946#0__2__background.5" type="background" depart="151.94" departLane="best">
        <route edges="315156946#0 E2 E3"/>
    </vehicle>
    <vehicle id="525074961#6__2__background.10" type="background" depart="152.29" departLane="best">
        <route edges="525074961#6 525074961#10 525074961#11"/>
    </vehicle>
    <vehicle id="E1__2__background.9" type="background" depart="153.35" departLane="best">
        <route edges="E1 989312046#2"/>
    </vehicle>
    <vehicle id="E1__2__background.10" type="background" depart="153.66" departLane="best">
        <route edges="E1 429770748#1"/>
    </vehicle>
    <vehicle id="E1__2__background.11" type="background" depart="154.35" departLane="best">
        <route edges="E1 429770748#1"/>
    </vehicle>
    <vehicle id="525074961#6__2__background.11" type="background" depart="155.15" departLane="best">
        <route edges="525074961#6 429770748#1"/>
    </vehicle>
    <vehicle id="989312046#0__2__background.5" type="background" depart="155.70" departLane="best">
        <route edges="989312046#0 989312046#2"/>
    </vehicle>
    <vehicle id="315156946#0__2__background.6" type="background" depart="157.85" departLane="best">
        <route edges="315156946#0 989312046#2"/>
    </vehicle>
    <vehicle id="989312046#0__2__background.6" type="background" depart="159.52" departLane="best">
        <route edges="989312046#0 989312046#2"/>
    </vehicle>
    <vehicle id="315156946#0__2__background.7" type="background" depart="159.82" departLane="best">
        <route edges="315156946#0 525074961#10 525074961#11"/>
    </vehicle>
    <vehicle id="315156946#0__2__background.8" type="background" depart="162.11" departLane="best">
        <route edges="315156946#0 E2 E3"/>
    </vehicle>
    <vehicle id="315156946#0__2__background.9" type="background" depart="162.53" departLane="best">
        <route edges="315156946#0 525074961#10 525074961#11"/>
    </vehicle>
    <vehicle id="E1__2__background.12" type="background" depart="162.62" departLane="best">
        <route edges="E1 429770748#1"/>
    </vehicle>
    <vehicle id="315156946#0__2__background.10" type="background" depart="163.32" departLane="best">
        <route edges="315156946#0 989312046#2"/>
    </vehicle>
    <vehicle id="E1__2__background.13" type="background" depart="163.50" departLane="best">
        <route edges="E1 429770748#1"/>
    </vehicle>
    <vehicle id="315156946#0__2__background.11" type="background" depart="163.99" departLane="best">
        <route edges="315156946#0 E2 E3"/>
    </vehicle>
    <vehicle id="315156946#0__2__background.12" type="background" depart="164.08" departLane="best">
        <route edges="315156946#0 525074961#10 525074961#11"/>
    </vehicle>
    <vehicle id="E1__2__background.14" type="background" depart="164.42" departLane="best">
        <route edges="E1 429770748#1"/>
    </vehicle>
    <vehicle id="315156946#0__2__background.13" type="background" depart="165.08" departLane="best">
        <route edges="315156946#0 E2 E3"/>
    </vehicle>
    <vehicle id="315156946#0__2__background.14" type="background" depart="165.09" departLane="best">
        <route edges="315156946#0 E2 E3"/>
    </vehicle>
    <vehicle id="315156946#0__2__background.15" type="background" depart="167.20" departLane="best">
        <route edges="315156946#0 E2 E3"/>
    </vehicle>
    <vehicle id="E1__2__background.15" type="background" depart="168.77" departLane="best">
        <route edges="E1 989312046#2"/>
    </vehicle>
    <vehicle id="525074961#6__2__background.12" type="background" depart="169.49" departLane="best">
        <route edges="525074961#6 E2 E3"/>
    </vehicle>
    <vehicle id="989312046#0__2__background.7" type="background" depart="170.44" departLane="best">
        <route edges="989312046#0 989312046#2"/>
    </vehicle>
    <vehicle id="989312046#0__2__background.8" type="background" depart="172.24" departLane="best">
        <route edges="989312046#0 989312046#2"/>
    </vehicle>
    <vehicle id="315156946#0__2__background.16" type="background" depart="173.82" departLane="best">
        <route edges="315156946#0 525074961#10 525074961#11"/>
    </vehicle>
    <vehicle id="E1__2__background.16" type="background" depart="173.90" departLane="best">
        <route edges="E1 429770748#1"/>
    </vehicle>
    <vehicle id="315156946#0__2__background.17" type="background" depart="177.22" departLane="best">
        <route edges="315156946#0 989312046#2"/>
    </vehicle>
    <vehicle id="989312046#0__2__background.9" type="background" depart="178.72" departLane="best">
        <route edges="989312046#0 989312046#2"/>
    </vehicle>
    <vehicle id="315156946#0__3__background.0" type="background" depart="181.00" departLane="best">
        <route edges="315156946#0 E2 E3"/>
    </vehicle>
    <vehicle id="E1__3__background.0" type="background" depart="181.21" departLane="best">
        <route edges="E1 429770748#1"/>
    </vehicle>
    <vehicle id="525074961#6__3__background.0" type="background" depart="183.60" departLane="best">
        <route edges="525074961#6 429770748#1"/>
    </vehicle>
    <vehicle id="989312046#0__3__background.0" type="background" depart="185.41" departLane="best">
        <route edges="989312046#0 989312046#2"/>
    </vehicle>
    <vehicle id="E1__3__background.1" type="background" depart="187.55" departLane="best">
        <route edges="E1 429770748#1"/>
    </vehicle>
    <vehicle id="315156946#0__3__background.1" type="background" depart="188.79" departLane="best">
        <route edges="315156946#0 E2 E3"/>
    </vehicle>
    <vehicle id="315156946#0__3__background.2" type="background" depart="188.82" departLane="best">
        <route edges="315156946#0 525074961#10 525074961#11"/>
    </vehicle>
    <vehicle id="525074961#6__3__background.1" type="background" depart="189.26" departLane="best">
        <route edges="525074961#6 525074961#10 525074961#11"/>
    </vehicle>
    <vehicle id="989312046#0__3__background.1" type="background" depart="189.59" departLane="best">
        <route edges="989312046#0 429770748#1"/>
    </vehicle>
    <vehicle id="315156946#0__3__background.3" type="background" depart="193.75" departLane="best">
        <route edges="315156946#0 525074961#10 525074961#11"/>
    </vehicle>
    <vehicle id="989312046#0__3__background.2" type="background" depart="196.61" departLane="best">
        <route edges="989312046#0 429770748#1"/>
    </vehicle>
    <vehicle id="989312046#0__3__background.3" type="background" depart="197.09" departLane="best">
        <route edges="989312046#0 989312046#2"/>
    </vehicle>
    <vehicle id="525074961#6__3__background.2" type="background" depart="197.41" departLane="best">
        <route edges="525074961#6 525074961#10 525074961#11"/>
    </vehicle>
    <vehicle id="315156946#0__3__background.4" type="background" depart="198.82" departLane="best">
        <route edges="315156946#0 E2 E3"/>
    </vehicle>
    <vehicle id="315156946#0__3__background.5" type="background" depart="201.15" departLane="best">
        <route edges="315156946#0 989312046#2"/>
    </vehicle>
    <vehicle id="315156946#0__3__background.6" type="background" depart="201.25" departLane="best">
        <route edges="315156946#0 525074961#10 525074961#11"/>
    </vehicle>
    <vehicle id="525074961#6__3__background.3" type="background" depart="202.40" departLane="best">
        <route edges="525074961#6 525074961#10 525074961#11"/>
    </vehicle>
    <vehicle id="E1__3__background.2" type="background" depart="203.58" departLane="best">
        <route edges="E1 429770748#1"/>
    </vehicle>
    <vehicle id="525074961#6__3__background.4" type="background" depart="204.84" departLane="best">
        <route edges="525074961#6 525074961#10 525074961#11"/>
    </vehicle>
    <vehicle id="E1__3__background.3" type="background" depart="205.07" departLane="best">
        <route edges="E1 429770748#1"/>
    </vehicle>
    <vehicle id="315156946#0__3__background.7" type="background" depart="205.18" departLane="best">
        <route edges="315156946#0 989312046#2"/>
    </vehicle>
    <vehicle id="E1__3__background.4" type="background" depart="206.74" departLane="best">
        <route edges="E1 525074961#10 525074961#11"/>
    </vehicle>
    <vehicle id="E1__3__background.5" type="background" depart="207.54" departLane="best">
        <route edges="E1 989312046#2"/>
    </vehicle>
    <vehicle id="E1__3__background.6" type="background" depart="209.73" departLane="best">
        <route edges="E1 429770748#1"/>
    </vehicle>
    <vehicle id="989312046#0__3__background.4" type="background" depart="210.15" departLane="best">
        <route edges="989312046#0 989312046#2"/>
    </vehicle>
    <vehicle id="E1__3__background.7" type="background" depart="211.72" departLane="best">
        <route edges="E1 429770748#1"/>
    </vehicle>
    <vehicle id="989312046#0__3__background.5" type="background" depart="213.16" departLane="best">
        <route edges="989312046#0 989312046#2"/>
    </vehicle>
    <vehicle id="E1__3__background.8" type="background" depart="213.39" departLane="best">
        <route edges="E1 429770748#1"/>
    </vehicle>
    <vehicle id="525074961#6__3__background.5" type="background" depart="214.31" departLane="best">
        <route edges="525074961#6 525074961#10 525074961#11"/>
    </vehicle>
    <vehicle id="315156946#0__3__background.8" type="background" depart="214.60" departLane="best">
        <route edges="315156946#0 E2 E3"/>
    </vehicle>
    <vehicle id="525074961#6__3__background.6" type="background" depart="216.68" departLane="best">
        <route edges="525074961#6 525074961#10 525074961#11"/>
    </vehicle>
    <vehicle id="525074961#6__3__background.7" type="background" depart="217.11" departLane="best">
        <route edges="525074961#6 E2 E3"/>
    </vehicle>
    <vehicle id="E1__3__background.9" type="background" depart="217.26" departLane="best">
        <route edges="E1 525074961#10 525074961#11"/>
    </vehicle>
    <vehicle id="E1__3__background.10" type="background" depart="217.41" departLane="best">
        <route edges="E1 989312046#2"/>
    </vehicle>
    <vehicle id="E1__3__background.11" type="background" depart="217.44" departLane="best">
        <route edges="E1 989312046#2"/>
    </vehicle>
    <vehicle id="E1__3__background.12" type="background" depart="219.01" departLane="best">