<?xml version="1.0" encoding="UTF-8"?>

<!-- generated on 2026-07-02T17:14:39.675126+08:00 by Eclipse SUMO jtrrouter 1.27.0
<jtrrouterConfiguration xmlns:xsi="http://www.w3.org/2001/XMLSchema-instance" xsi:noNamespaceSchemaLocation="http://sumo.dlr.de/xsd/jtrrouterConfiguration.xsd">

    <input>
        <net-file value="/home/wmn/code/research/SingleTSC_TranSimHub/junction_scenarios/France_Massy/./networks/normal.net.xml"/>
        <route-files value="/home/wmn/code/research/SingleTSC_TranSimHub/junction_scenarios/France_Massy/./testflow.trip.xml"/>
        <turn-ratio-files value="/home/wmn/code/research/SingleTSC_TranSimHub/junction_scenarios/France_Massy/./testflow.turndefs.xml"/>
    </input>

    <output>
        <output-file value="/home/wmn/code/research/SingleTSC_TranSimHub/junction_scenarios/France_Massy/./routes/low_density.rou.xml"/>
    </output>

    <processing>
        <randomize-flows value="True"/>
        <accept-all-destinations value="True"/>
    </processing>

    <defaults>
        <departlane value="best"/>
    </defaults>

    <report>
        <no-warnings value="true"/>
    </report>

    <random_number>
        <seed value="777"/>
    </random_number>

</jtrrouterConfiguration>
-->

<routes xmlns:xsi="http://www.w3.org/2001/XMLSchema-instance" xsi:noNamespaceSchemaLocation="http://sumo.dlr.de/xsd/routes_file.xsd">
    <vType id="background" length="5.00" color="220,220,220" tau="1.0"/>
    <vehicle id="172801188#0.85__0__background.0" type="background" depart="3.58" departLane="best">
        <route edges="172801188#0.85 172801188#1"/>
    </vehicle>
    <vehicle id="-172801188#1.174__0__background.0" type="background" depart="6.54" departLane="best">
        <route edges="-172801188#1.174 -172801188#0"/>
    </vehicle>
    <vehicle id="-172801188#1.174__0__background.1" type="background" depart="6.80" departLane="best">
        <route edges="-172801188#1.174 -172801130"/>
    </vehicle>
    <vehicle id="172801188#0.85__0__background.1" type="background" depart="10.88" departLane="best">
        <route edges="172801188#0.85 -172801130"/>
    </vehicle>
    <vehicle id="172801188#0.85__0__background.2" type="background" depart="11.03" departLane="best">
        <route edges="172801188#0.85 172801188#1"/>
    </vehicle>
    <vehicle id="-172801188#1.174__0__background.2" type="background" depart="12.32" departLane="best">
        <route edges="-172801188#1.174 -172801188#0"/>
    </vehicle>
    <vehicle id="172801130.183__0__background.0" type="background" depart="15.93" departLane="best">
        <route edges="172801130.183 -172801188#0"/>
    </vehicle>
    <vehicle id="172801188#0.85__0__background.3" type="background" depart="17.37" departLane="best">
        <route edges="172801188#0.85 -172801130"/>
    </vehicle>
    <vehicle id="-172801188#1.174__0__background.3" type="background" depart="19.28" departLane="best">
        <route edges="-172801188#1.174 -172801130"/>
    </vehicle>
    <vehicle id="-172801188#1.174__0__background.4" type="background" depart="20.32" departLane="best">
        <route edges="-172801188#1.174 -172801130"/>
    </vehicle>
    <vehicle id="-172801188#1.174__0__background.5" type="background" depart="25.90" departLane="best">
        <route edges="-172801188#1.174 -172801188#0"/>
    </vehicle>
    <vehicle id="172801130.183__0__background.1" type="background" depart="26.70" departLane="best">
        <route edges="172801130.183 -172801188#0"/>
    </vehicle>
    <vehicle id="-172801188#1.174__0__background.6" type="background" depart="26.95" departLane="best">
        <route edges="-172801188#1.174 -172801130"/>
    </vehicle>
    <vehicle id="172801188#0.85__0__background.4" type="background" depart="28.79" departLane="best">
        <route edges="172801188#0.85 -172801130"/>
    </vehicle>
    <vehicle id="172801130.183__0__background.2" type="background" depart="36.79" departLane="best">
        <route edges="172801130.183 172801188#1"/>
    </vehicle>
    <vehicle id="172801130.183__0__background.3" type="background" depart="40.54" departLane="best">
        <route edges="172801130.183 -172801188#0"/>
    </vehicle>
    <vehicle id="-172801188#1.174__0__background.7" type="background" depart="40.85" departLane="best">
        <route edges="-172801188#1.174 -172801130"/>
    </vehicle>
    <vehicle id="172801188#0.85__0__background.5" type="background" depart="44.46" departLane="best">
        <route edges="172801188#0.85 172801188#1"/>
    </vehicle>
    <vehicle id="172801130.183__0__background.4" type="background" depart="47.92" departLane="best">
        <route edges="172801130.183 172801188#1"/>
    </vehicle>
    <vehicle id="172801130.183__0__background.5" type="background" depart="52.13" departLane="best">
        <route edges="172801130.183 -172801188#0"/>
    </vehicle>
    <vehicle id="172801188#0.85__0__background.6" type="background" depart="54.94" departLane="best">
        <route edges="172801188#0.85 -172801130"/>
    </vehicle>
    <vehicle id="172801188#0.85__1__background.0" type="background" depart="60.84" departLane="best">
        <route edges="172801188#0.85 -172801130"/>
    </vehicle>
    <vehicle id="-172801188#1.174__1__background.0" type="background" depart="64.16" departLane="best">
        <route edges="-172801188#1.174 -172801130"/>
    </vehicle>
    <vehicle id="172801188#0.85__1__background.1" type="background" depart="65.68" departLane="best">
        <route edges="172801188#0.85 172801188#1"/>
    </vehicle>
    <vehicle id="-172801188#1.174__1__background.1" type="background" depart="65.99" departLane="best">
        <route edges="-172801188#1.174 -172801188#0"/>
    </vehicle>
    <vehicle id="172801130.183__1__background.0" type="background" depart="67.71" departLane="best">
        <route edges="172801130.183 -172801188#0"/>
    </vehicle>
    <vehicle id="-172801188#1.174__1__background.2" type="background" depart="67.95" departLane="best">
        <route edges="-172801188#1.174 -172801130"/>
    </vehicle>
    <vehicle id="172801130.183__1__background.1" type="background" depart="70.82" departLane="best">
        <route edges="172801130.183 -172801188#0"/>
    </vehicle>
    <vehicle id="172801188#0.85__1__background.2" type="background" depart="75.68" departLane="best">
        <route edges="172801188#0.85 -172801130"/>
    </vehicle>
    <vehicle id="172801188#0.85__1__background.3" type="background" depart="76.75" departLane="best">
        <route edges="172801188#0.85 -172801130"/>
    </vehicle>
    <vehicle id="172801188#0.85__1__background.4" type="background" depart="83.35" departLane="best">
        <route edges="172801188#0.85 -172801130"/>
    </vehicle>
    <vehicle id="-172801188#1.174__1__background.3" type="background" depart="88.29" departLane="best">
        <route edges="-172801188#1.174 -172801130"/>
    </vehicle>
    <vehicle id="-172801188#1.174__1__background.4" type="background" depart="93.66" departLane="best">
        <route edges="-172801188#1.174 -172801130"/>
    </vehicle>
    <vehicle id="172801130.183__1__background.2" type="background" depart="95.91" departLane="best">
        <route edges="172801130.183 172801188#1"/>
    </vehicle>
    <vehicle id="172801130.183__1__background.3" type="background" depart="101.30" departLane="best">
        <route edges="172801130.183 172801188#1"/>
    </vehicle>
    <vehicle id="-172801188#1.174__1__background.5" type="background" depart="103.19" departLane="best">
        <route edges="-172801188#1.174 -172801188#0"/>
    </vehicle>
    <vehicle id="-172801188#1.174__1__background.6" type="background" depart="106.02" departLane="best">
        <route edges="-172801188#1.174 -172801130"/>
    </vehicle>
    <vehicle id="172801188#0.85__1__background.5" type="background" depart="106.02" departLane="best">
        <route edges="172801188#0.85 -172801130"/>
    </vehicle>
    <vehicle id="172801130.183__1__background.4" type="background" depart="108.23" departLane="best">
        <route edges="172801130.183 -172801188#0"/>
    </vehicle>
    <vehicle id="172801188#0.85__1__background.6" type="background" depart="111.52" departLane="best">
        <route edges="172801188#0.85 172801188#1"/>
    </vehicle>
    <vehicle id="-172801188#1.174__1__background.7" type="background" depart="113.45" departLane="best">
        <route edges="-172801188#1.174 -172801188#0"/>
    </vehicle>
    <vehicle id="172801130.183__1__background.5" type="background" depart="116.15" departLane="best">
        <route edges="172801130.183 172801188#1"/>
    </vehicle>
    <vehicle id="172801188#0.85__2__background.0" type="background" depart="120.03" departLane="best">
        <route edges="172801188#0.85 -172801130"/>
    </vehicle>
    <vehicle id="172801188#0.85__2__background.1" type="background" depart="124.54" departLane="best">
        <route edges="172801188#0.85 -172801130"/>
    </vehicle>
    <vehicle id="-172801188#1.174__2__background.0" type="background" depart="129.31" departLane="best">
        <route edges="-172801188#1.174 -172801188#0"/>
    </vehicle>
    <vehicle id="-172801188#1.174__2__background.1" type="background" depart="131.26" departLane="best">
        <route edges="-172801188#1.174 -172801188#0"/>
    </vehicle>
    <vehicle id="-172801188#1.174__2__background.2" type="background" depart="135.08" departLane="best">
        <route edges="-172801188#1.174 -172801130"/>
    </vehicle>
    <vehicle id="-172801188#1.174__2__background.3" type="background" depart="138.84" departLane="best">
        <route edges="-172801188#1.174 -172801130"/>
    </vehicle>
    <vehicle id="172801130.183__2__background.0" type="background" depart="145.22" departLane="best">
        <route edges="172801130.183 -172801188#0"/>
    </vehicle>
    <vehicle id="172801130.183__2__background.1" type="background" depart="146.23" departLane="best">
        <route edges="172801130.183 172801188#1"/>
    </vehicle>
    <vehicle id="172801130.183__2__background.2" type="background" depart="146.40" departLane="best">
        <route edges="172801130.183 -172801188#0"/>
    </vehicle>
    <vehicle id="172801188#0.85__2__background.2" type="background" depart="150.89" departLane="best">
        <route edges="172801188#0.85 -172801130"/>
    </vehicle>
    <vehicle id="172801130.183__2__background.3" type="background" depart="151.08" departLane="best">
        <route edges="172801130.183 172801188#1"/>
    </vehicle>
    <vehicle id="172801130.183__2__background.4" type="background" depart="159.15" departLane="best">
        <route edges="172801130.183 172801188#1"/>
    </vehicle>
    <vehicle id="-172801188#1.174__2__background.4" type="background" depart="163.28" departLane="best">
        <route edges="-172801188#1.174 -172801188#0"/>
    </vehicle>
    <vehicle id="172801130.183__2__background.5" type="background" depart="168.14" departLane="best">
        <route edges="172801130.183 -172801188#0"/>
    </vehicle>
    <vehicle id="172801188#0.85__2__background.3" type="background" depart="169.14" departLane="best">
        <route edges="172801188#0.85 -172801130"/>
    </vehicle>
    <vehicle id="-172801188#1.174__2__background.5" type="background" depart="171.42" departLane="best">
        <route edges="-172801188#1.174 -172801130"/>
    </vehicle>
    <vehicle id="-172801188#1.174__2__background.6" type="background" depart="173.47" departLane="best">
        <route edges="-172801188#1.174 -172801130"/>
    </vehicle>
    <vehicle id="172801188#0.85__2__background.4" type="background" depart="174.52" departLane="best">
        <route edges="172801188#0.85 172801188#1"/>
    </vehicle>
    <vehicle id="172801188#0.85__2__background.5" type="background" depart="177.89" departLane="best">
        <route edges="172801188#0.85 172801188#1"/>
    </vehicle>
    <vehicle id="172801188#0.85__2__background.6" type="background" depart="179.78" departLane="best">
        <route edges="172801188#0.85 172801188#1"/>
    </vehicle>
    <vehicle id="172801130.183__3__background.0" type="background" depart="181.54" departLane="best">
        <route edges="172801130.183 172801188#1"/>
    </vehicle>
    <vehicle id="-172801188#1.174__3__background.0" type="background" depart="181.72" departLane="best">
        <route edges="-172801188#1.174 -172801188#0"/>
    </vehicle>
    <vehicle id="172801188#0.85__3__background.0" type="background" depart="183.43" departLane="best">
        <route edges="172801188#0.85 172801188#1"/>
    </vehicle>
    <vehicle id="172801188#0.85__3__background.1" type="background" depart="183.47" departLane="best">
        <route edges="172801188#0.85 -172801130"/>
    </vehicle>
    <vehicle id="-172801188#1.174__3__background.1" type="background" depart="190.17" departLane="best">
        <route edges="-172801188#1.174 -172801188#0"/>
    </vehicle>
    <vehicle id="-172801188#1.174__3__background.2" type="background" depart="192.29" departLane="best">
        <route edges="-172801188#1.174 -172801130"/>
    </vehicle>
    <vehicle id="172801188#0.85__3__background.2" type="background" depart="192.41" departLane="best">
        <route edges="172801188#0.85 -172801130"/>
    </vehicle>
    <vehicle id="172801188#0.85__3__background.3" type="background" depart="193.67" departLane="best">
        <route edges="172801188#0.85 -172801130"/>
    </vehicle>
    <vehicle id="172801130.183__3__background.1" type="background" depart="195.59" departLane="best">
        <route edges="172801130.183 -172801188#0"/>
    </vehicle>
    <vehicle id="172801130.183__3__background.2" type="background" depart="196.46" departLane="best">
        <route edges="172801130.183 172801188#1"/>
    </vehicle>
    <vehicle id="172801188#0.85__3__background.4" type="background" depart="196.73" departLane="best">
        <route edges="172801188#0.85 172801188#1"/>
    </vehicle>
    <vehicle id="172801188#0.85__3__background.5" type="background" depart="200.50" departLane="best">
        <route edges="172801188#0.85 -172801130"/>
    </vehicle>
    <vehicle id="-172801188#1.174__3__background.3" type="background" depart="207.35" departLane="best">
        <route edges="-172801188#1.174 -172801188#0"/>
    </vehicle>
    <vehicle id="172801130.183__3__background.3" type="background" depart="209.83" departLane="best">
        <route edges="172801130.183 -172801188#0"/>
    </vehicle>
    <vehicle id="172801188#0.85__3__background.6" type="background" depart="217.85" departLane="best">
        <route edges="172801188#0.85 172801188#1"/>
    </vehicle>
    <vehicle id="172801130.183__3__background.4" type="background" depart="222.87" departLane="best">
        <route edges="172801130.183 172801188#1"/>
    </vehicle>
    <vehicle id="-172801188#1.174__3__background.4" type="background" depart="224.98" departLane="best">
        <route edges="-172801188#1.174 -172801188#0"/>
    </vehicle>
    <vehicle id="172801130.183__3__background.5" type="background" depart="225.90" departLane="best">
        <route edges="172801130.183 -172801188#0"/>
    </vehicle>
    <vehicle id="-172801188#1.174__3__background.5" type="background" depart="227.92" departLane="best">
        <route edges="-172801188#1.174 -172801188#0"/>
    </vehicle>
    <vehicle id="-172801188#1.174__3__background.6" type="background" depart="230.49" departLane="best">
        <route edges="-172801188#1.174 -172801130"/>
    </vehicle>
    <vehicle id="-172801188#1.174__4__background.0" type="background" depart="248.79" departLane="best">
        <route edges="-172801188#1.174 -172801130"/>
    </vehicle>
    <vehicle id="172801188#0.85__4__background.0" type="background" depart="248.82" departLane="best">
        <route edges="172801188#0.85 172801188#1"/>
    </vehicle>
    <vehicle id="172801188#0.85__4__background.1" type="background" depart="253.75" departLane="best">
        <route edges="172801188#0.85 172801188#1"/>
    </vehicle>
    <vehicle id="172801130.183__4__background.0" type="background" depart="254.01" departLane="best">
        <route edges="172801130.183 172801188#1"/>
    </vehicle>
    <vehicle id="-172801188#1.174__4__background.1" type="background" depart="258.82" departLane="best">
        <route edges="-172801188#1.174 -172801188#0"/>
    </vehicle>
    <vehicle id="172801188#0.85__4__background.2" type="background" depart="261.15" departLane="best">
        <route edges="172801188#0.85 172801188#1"/>
    </vehicle>
    <vehicle id="-172801188#1.174__4__background.2" type="background" depart="261.25" departLane="best">
        <route edges="-172801188#1.174 -172801188#0"/>
    </vehicle>
    <vehicle id="172801130.183__4__background.1" type="background" depart="263.16" departLane="best">
        <route edges="172801130.183 -172801188#0"/>
    </vehicle>
    <vehicle id="172801130.183__4__background.2" type="background" depart="265.86" departLane="best">
        <route edges="172801130.183 -172801188#0"/>
    </vehicle>
    <vehicle id="-172801188#1.174__4__background.3" type="background" depart="274.60" departLane="best">
        <route edges="-172801188#1.174 -172801130"/>
    </vehicle>
    <vehicle id="172801130.183__4__background.3" type="background" depart="275.70" departLane="best">
        <route edges="172801130.183 172801188#1"/>
    </vehicle>
    <vehicle id="172801188#0.85__4__background.3" type="background" depart="280.90" departLane="best">
        <route edges="172801188#0.85 172801188#1"/>
    </vehicle>
    <vehicle id="-172801188#1.174__4__background.4" type="background" depart="284.11" departLane="best">
        <route edges="-172801188#1.174 -172801130"/>
    </vehicle>
    <vehicle id="172801188#0.85__4__background.4" type="background" depart="284.49" departLane="best">
        <route edges="172801188#0.85 -172801130"/>
    </vehicle>
    <vehicle id="172801188#0.85__4__background.5" type="background" depart="285.73" departLane="best">
        <route edges="172801188#0.85 -172801130"/>
    </vehicle>
    <vehicle id="-172801188#1.174__4__background.5" type="background" depart="288.93" departLane="best">
        <route edges="-172801188#1.174 -172801188#0"/>
    </vehicle>
    <vehicle id="172801130.183__4__background.4" type="background" depart="290.44" departLane="best">
        <route edges="172801130.183 172801188#1"/>
    </vehicle>
    <vehicle id="-172801188#1.174__4__background.6" type="background" depart="291.29" departLane="best">
        <route edges="-172801188#1.174 -172801130"/>
    </vehicle>
    <vehicle id="172801188#0.85__4__background.6" type="background" depart="291.75" departLane="best">
        <route edges="172801188#0.85 -172801130"/>
    </vehicle>
    <vehicle id="172801130.183__4__background.5" type="background" depart="292.24" departLane="best">
        <route edges="172801130.183 172801188#1"/>
    </vehicle>
    <vehicle id="-172801188#1.174__4__background.7" type="background" depart="294.15" departLane="best">
        <route edges="-172801188#1.174 -172801130"/>
    </vehicle>
    <vehicle id="172801130.183__5__background.0" type="background" depart="303.60" departLane="best">
        <route edges="172801130.183 -172801188#0"/>
    </vehicle>
    <vehicle id="172801130.183__5__background.1" type="background" depart="309.26" departLane="best">
        <route edges="172801130.183 -172801188#0"/>
    </vehicle>
    <vehicle id="172801188#0.85__5__background.0" type="background" depart="317.41" departLane="best">
        <route edges="172801188#0.85 -172801130"/>
    </vehicle>
    <vehicle id="172801188#0.85__5__background.1" type="background" depart="322.40" departLane="best">
        <route edges="172801188#0.85 172801188#1"/>
    </vehicle>
    <vehicle id="172801188#0.85__5__background.2" type="background" depart="324.84" departLane="best">
        <route edges="172801188#0.85 172801188#1"/>
    </vehicle>
    <vehicle id="-172801188#1.174__5__background.0" type="background" depart="326.74" departLane="best">
        <route edges="-172801188#1.174 -172801130"/>
    </vehicle>
    <vehicle id="172801188#0.85__5__background.3" type="background" depart="327.54" departLane="best">
        <route edges="172801188#0.85 172801188#1"/>
    </vehicle>
    <vehicle id="-172801188#1.174__5__background.1" type="background" depart="329.73" departLane="best">
        <route edges="-172801188#1.174 -172801188#0"/>
    </vehicle>
    <vehicle id="-172801188#1.174__5__background.2" type="background" depart="331.72" departLane="best">
        <route edges="-172801188#1.174 -172801188#0"/>
    </vehicle>
    <vehicle id="-172801188#1.174__5__background.3" type="background" depart="333.39" departLane="best">
        <route edges="-172801188#1.174 -172801188#0"/>
    </vehicle>
    <vehicle id="172801130.183__5__background.2" type="background" depart="334.31" departLane="best">
        <route edges="172801130.183 -172801188#0"/>
    </vehicle>
    <vehicle id="172801130.183__5__background.3" type="background" depart="336.68" departLane="best">
        <route edges="172801130.183 172801188#1"/>
    </vehicle>
    <vehicle id="172801130.183__5__background.4" type="background" depart="337.11" departLane="best">
        <route edges="172801130.183 172801188#1"/>
    </vehicle>
    <vehicle id="-172801188#1.174__5__background.4" type="background" depart="337.26" departLane="best">
        <route edges="-172801188#1.174 -172801130"/>
    </vehicle>
    <vehicle id="-172801188#1.174__5__background.5" type="background" depart="337.41" departLane="best">
        <route edges="-172801188#1.174 -172801188#0"/>
    </vehicle>
    <vehicle id="-172801188#1.174__5__background.6" type="background" depart="337.44" departLane="best">
        <route edges="-172801188#1.174 -172801188#0"/>
    </vehicle>
    <vehicle id="-172801188#1.174__5__background.7" type="background" depart="344.76" departLane="best">
        <route edges="-172801188#1.174 -172801188#0"/>
    </vehicle>
    <vehicle id="172801130.183__5__background.5" type="background" depart="345.63" departLane="best">
        <route edges="172801130.183 172801188#1"/>
    </vehicle>
    <vehicle id="172801188#0.85__5__background.4" type="background" depart="352.22" departLane="best">
        <route edges="172801188#0.85 172801188#1"/>
    </vehicle>
    <vehicle id="172801188#0.85__5__background.5" type="background" depart="355.70" departLane="best">
        <route edges="172801188#0.85 -172801130"/>
    </vehicle>
    <vehicle id="172801188#0.85__5__background.6" type="background" depart="355.99" departLane="best">
        <route edges="172801188#0.85 172801188#1"/>
    </vehicle>
    <vehicle id="172801130.183__6__background.0" type="background" depart="361.21" departLane="best">
        <route edges="172801130.183 -172801188#0"/>
    </vehicle>
    <vehicle id="172801188#0.85__6__background.0" type="background" depart="367.55" departLane="best">
        <route edges="172801188#0.85 -172801130"/>
    </vehicle>
    <vehicle id="172801188#0.85__6__background.1" type="background" depart="375.95" departLane="best">
        <route edges="172801188#0.85 172801188#1"/>
    </vehicle>
    <vehicle id="172801188#0.85__6__background.2" type="background" depart="378.20" departLane="best">
        <route edges="172801188#0.85 172801188#1"/>
    </vehicle>
    <vehicle id="-172801188#1.174__6__background.0" type="background" depart="380.24" departLane="best">
        <route edges="-172801188#1.174 -172801188#0"/>
    </vehicle>
    <vehicle id="172801188#0.85__6__background.3" type="background" depart="382.06" departLane="best">
        <route edges="172801188#0.85 -172801130"/>
    </vehicle>
    <vehicle id="172801130.183__6__background.1" type="background" depart="383.58" departLane="best">
        <route edges="172801130.183 172801188#1"/>
    </vehicle>
    <vehicle id="172801130.183__6__background.2" type="background" depart="385.07" departLane="best">
        <route edges="172801130.183 172801188#1"/>
    </vehicle>
    <vehicle id="-172801188#1.174__6__background.1" type="background" depart="388.08" departLane="best">
        <route edges="-172801188#1.174 -172801188#0"/>
    </vehicle>
    <vehicle id="-172801188#1.174__6__background.2" type="background" depart="397.22" departLane="best">
        <route edges="-172801188#1.174 -172801188#0"/>
    </vehicle>
    <vehicle id="172801130.183__6__background.3" type="background" depart="399.01" departLane="best">
        <route edges="172801130.183 172801188#1"/>
    </vehicle>
    <vehicle id="-172801188#1.174__6__background.3" type="background" depart="399.97" departLane="best">
        <route edges="-172801188#1.174 -172801188#0"/>
    </vehicle>
    <vehicle id="172801188#0.85__6__background.4" type="background" depart="401.40" departLane="best">
        <route edges="172801188#0.85 172801188#1"/>
    </vehicle>
    <vehicle id="-172801188#1.174__6__background.4" type="background" depart="402.09" departLane="best">
        <route edges="-172801188#1.174 -172801188#0"/>
    </vehicle>
    <vehicle id="-172801188#1.174__6__background.5" type="background" depart="406.09" departLane="best">
        <route edges="-172801188#1.174 -172801188#0"/>
    </vehicle>
    <vehicle id="-172801188#1.174__6__background.6" type="background" depart="410.50" departLane="best">
        <route edges="-172801188#1.174 -172801188#0"/>
    </vehicle>
    <vehicle id="172801130.183__6__background.4" type="background" depart="416.58" departLane="best">
        <route edges="172801130.183 172801188#1"/>
    </vehicle>
    <vehicle id="172801188#0.85__6__background.5" type="background" depart="417.53" departLane="best">
        <route edges="172801188#0.85 -172801130"/>
    </vehicle>
    <vehicle id="172801130.183__6__background.5" type="background" depart="417.56" departLane="best">
        <route edges="172801130.183 172801188#1"/>
    </vehicle>
    <vehicle id="172801188#0.85__6__background.6" type="background" depart="419.25" departLane="best">
        <route edges="172801188#0.85 -172801130"/>
    </vehicle>
    <vehicle id="172801188#0.85__7__background.0" type="background" depart="422.06" departLane="best">
        <route edges="172801188#0.85 172801188#1"/>
    </vehicle>
    <vehicle id="-172801188#1.174__7__background.0" type="background" depart="424.42" departLane="best">
        <route edges="-172801188#1.174 -172801130"/>
    </vehicle>
    <vehicle id="172801130.183__7__background.0" type="background" depart="430.58" departLane="best">
        <route edges="172801130.183 -172801188#0"/>
    </vehicle>
    <vehicle id="172801188#0.85__7__background.1" type="background" depart="443.13" departLane="best">
        <route edges="172801188#0.85 -172801130"/>
    </vehicle>
    <vehicle id="172801188#0.85__7__background.2" type="background" depart="444.16" departLane="best">
        <route edges="172801188#0.85 -172801130"/>
    </vehicle>
    <vehicle id="172801130.183__7__background.1" type="background" depart="447.01" departLane="best">
        <route edges="172801130.183 172801188#1"/>
    </vehicle>
    <vehicle id="172801130.183__7__background.2" type="background" depart="448.11" departLane="best">
        <route edges="172801130.183 -172801188#0"/>
    </vehicle>
    <vehicle id="172801130.183__7__background.3" type="background" depart="450.61" departLane="best">
        <route edges="172801130.183 -172801188#0"/>
    </vehicle>
    <vehicle id="172801188#0.85__7__background.3" type="background" depart="450.66" departLane="best">
        <route edges="172801188#0.85 -172801130"/>
    </vehicle>
    <vehicle id="-172801188#1.174__7__background.1" type="background" depart="451.56" departLane="best">
        <route edges="-172801188#1.174 -172801130"/>
    </vehicle>
    <vehicle id="172801130.183__7__background.4" type="background" depart="453.57" departLane="best">
        <route edges="172801130.183 -172801188#0"/>
    </vehicle>
    <vehicle id="-172801188#1.174__7__background.2" type="background" depart="455.06" departLane="best">
        <route edges="-172801188#1.174 -172801130"/>
    </vehicle>
    <vehicle id="172801188#0.85__7__background.4" type="background" depart="456.77" departLane="best">
        <route edges="172801188#0.85 172801188#1"/>
    </vehicle>
    <vehicle id="-172801188#1.174__7__background.3" type="background" depart="457.79" departLane="best">
        <route edges="-172801188#1.174 -172801188#0"/>
    </vehicle>
    <vehicle id="172801188#0.85__7__background.5" type="background" depart="457.89" departLane="best">
        <route edges="172801188#0.85 -172801130"/>
    </vehicle>
    <vehicle id="172801130.183__7__background.5" type="background" depart="461.64" departLane="best">
        <route edges="172801130.183 172801188#1"/>
    </vehicle>
    <vehicle id="-172801188#1.174__7__background.4" type="background" depart="467.48" departLane="best">
        <route edges="-172801188#1.174 -172801188#0"/>
    </vehicle>
    <vehicle id="-172801188#1.174__7__background.5" type="background" depart="472.97" departLane="best">
        <route edges="-172801188#1.174 -172801188#0"/>
    </vehicle>
    <vehicle id="-172801188#1.174__7__background.6" type="background" depart="478.13" departLane="best">
        <route edges="-172801188#1.174 -172801188#0"/>
    </vehicle>
    <vehicle id="172801188#0.85__7__background.6" type="background" depart="479.89" departLane="best">
        <route edges="172801188#0.85 172801188#1"/>
    </vehicle>
    <vehicle id="-172801188#1.174__8__background.0" type="background" depart="487.76" departLane="best">
        <route edges="-172801188#1.174 -172801130"/>
    </vehicle>
    <vehicle id="172801188#0.85__8__background.0" type="background" depart="489.40" departLane="best">
        <route edges="172801188#0.85 172801188#1"/>
    </vehicle>
    <vehicle id="172801188#0.85__8__background.1" type="background" depart="490.00" departLane="best">
        <route edges="172801188#0.85 -172801130"/>
    </vehicle>