<?xml version="1.0" encoding="UTF-8"?>

<!-- generated on 2026-07-02T17:14:31.392378+08:00 by Eclipse SUMO jtrrouter 1.27.0
<jtrrouterConfiguration xmlns:xsi="http://www.w3.org/2001/XMLSchema-instance" xsi:noNamespaceSchemaLocation="http://sumo.dlr.de/xsd/jtrrouterConfiguration.xsd">

    <input>
        <net-file value="/home/wmn/code/research/SingleTSC_TranSimHub/junction_scenarios/Chengdu_Chenghannanlu/./networks/normal.net.xml"/>
        <route-files value="/home/wmn/code/research/SingleTSC_TranSimHub/junction_scenarios/Chengdu_Chenghannanlu/./testflow.trip.xml"/>
        <turn-ratio-files value="/home/wmn/code/research/SingleTSC_TranSimHub/junction_scenarios/Chengdu_Chenghannanlu/./testflow.turndefs.xml"/>
    </input>

    <output>
        <output-file value="/home/wmn/code/research/SingleTSC_TranSimHub/junction_scenarios/Chengdu_Chenghannanlu/./routes/increasing_demand.rou.xml"/>
    </output>

    <processing>
        <randomize-flows value="True"/>
        <accept-all-destinations value="True"/>
    </processing>

    <defaults>
        <departlane value="best"/>
    </defaults>

    <report>
        <no-warnings value="true"/>
    </report>

    <random_number>
        <seed value="777"/>
    </random_number>

</jtrrouterConfiguration>
-->

<routes xmlns:xsi="http://www.w3.org/2001/XMLSchema-instance" xsi:noNamespaceSchemaLocation="http://sumo.dlr.de/xsd/routes_file.xsd">
    <vType id="background" length="5.00" color="220,220,220" tau="1.0"/>
    <vehicle id="845412822.360__0__background.0" type="background" depart="3.58" departLane="best">
        <route edges="845412822.360 298932653#1"/>
    </vehicle>
    <vehicle id="845412822.360__0__background.1" type="background" depart="6.54" departLane="best">
        <route edges="845412822.360 298932650#1"/>
    </vehicle>
    <vehicle id="845412822.360__0__background.2" type="background" depart="6.80" departLane="best">
        <route edges="845412822.360 298932650#1"/>
    </vehicle>
    <vehicle id="471999771#0.1574__0__background.0" type="background" depart="10.88" departLane="best">
        <route edges="471999771#0.1574 298932653#1"/>
    </vehicle>
    <vehicle id="845412822.360__0__background.3" type="background" depart="11.03" departLane="best">
        <route edges="845412822.360 298932653#1"/>
    </vehicle>
    <vehicle id="458749037#0.1098__0__background.0" type="background" depart="15.93" departLane="best">
        <route edges="458749037#0.1098 298932650#1"/>
    </vehicle>
    <vehicle id="471999771#0.1574__0__background.1" type="background" depart="17.37" departLane="best">
        <route edges="471999771#0.1574 298932653#1"/>
    </vehicle>
    <vehicle id="845412822.360__0__background.4" type="background" depart="25.90" departLane="best">
        <route edges="845412822.360 298932653#1"/>
    </vehicle>
    <vehicle id="458749037#0.1098__0__background.1" type="background" depart="26.70" departLane="best">
        <route edges="458749037#0.1098 845412821#0"/>
    </vehicle>
    <vehicle id="471999771#0.1574__0__background.2" type="background" depart="28.79" departLane="best">
        <route edges="471999771#0.1574 298932653#1"/>
    </vehicle>
    <vehicle id="458749037#0.1098__0__background.2" type="background" depart="36.79" departLane="best">
        <route edges="458749037#0.1098 298932650#1"/>
    </vehicle>
    <vehicle id="458749037#0.1098__0__background.3" type="background" depart="40.54" departLane="best">
        <route edges="458749037#0.1098 298932650#1"/>
    </vehicle>
    <vehicle id="845412822.360__0__background.5" type="background" depart="40.85" departLane="best">
        <route edges="845412822.360 298932650#1"/>
    </vehicle>
    <vehicle id="471999771#0.1574__0__background.3" type="background" depart="44.46" departLane="best">
        <route edges="471999771#0.1574 845412821#0"/>
    </vehicle>
    <vehicle id="458749037#0.1098__0__background.4" type="background" depart="47.92" departLane="best">
        <route edges="458749037#0.1098 845412821#0"/>
    </vehicle>
    <vehicle id="458749037#0.1098__0__background.5" type="background" depart="52.13" departLane="best">
        <route edges="458749037#0.1098 298932650#1"/>
    </vehicle>
    <vehicle id="471999771#0.1574__0__background.4" type="background" depart="54.94" departLane="best">
        <route edges="471999771#0.1574 298932653#1"/>
    </vehicle>
    <vehicle id="845412822.360__1__background.0" type="background" depart="60.84" departLane="best">
        <route edges="845412822.360 298932650#1"/>
    </vehicle>
    <vehicle id="471999771#0.1574__1__background.0" type="background" depart="65.68" departLane="best">
        <route edges="471999771#0.1574 298932653#1"/>
    </vehicle>
    <vehicle id="471999771#0.1574__1__background.1" type="background" depart="67.71" departLane="best">
        <route edges="471999771#0.1574 298932653#1"/>
    </vehicle>
    <vehicle id="458749037#0.1098__1__background.0" type="background" depart="70.82" departLane="best">
        <route edges="458749037#0.1098 298932650#1"/>
    </vehicle>
    <vehicle id="458749037#0.1098__1__background.1" type="background" depart="72.32" departLane="best">
        <route edges="458749037#0.1098 298932650#1"/>
    </vehicle>
    <vehicle id="845412822.360__1__background.1" type="background" depart="75.68" departLane="best">
        <route edges="845412822.360 298932650#1"/>
    </vehicle>
    <vehicle id="845412822.360__1__background.2" type="background" depart="76.75" departLane="best">
        <route edges="845412822.360 298932653#1"/>
    </vehicle>
    <vehicle id="458749037#0.1098__1__background.2" type="background" depart="79.28" departLane="best">
        <route edges="458749037#0.1098 845412821#0"/>
    </vehicle>
    <vehicle id="458749037#0.1098__1__background.3" type="background" depart="80.32" departLane="best">
        <route edges="458749037#0.1098 845412821#0"/>
    </vehicle>
    <vehicle id="845412822.360__1__background.3" type="background" depart="83.35" departLane="best">
        <route edges="845412822.360 298932650#1"/>
    </vehicle>
    <vehicle id="458749037#0.1098__1__background.4" type="background" depart="86.95" departLane="best">
        <route edges="458749037#0.1098 298932650#1"/>
    </vehicle>
    <vehicle id="471999771#0.1574__1__background.2" type="background" depart="95.91" departLane="best">
        <route edges="471999771#0.1574 298932653#1"/>
    </vehicle>
    <vehicle id="458749037#0.1098__1__background.5" type="background" depart="101.30" departLane="best">
        <route edges="458749037#0.1098 845412821#0"/>
    </vehicle>
    <vehicle id="845412822.360__1__background.4" type="background" depart="106.02" departLane="best">
        <route edges="845412822.360 298932653#1"/>
    </vehicle>
    <vehicle id="471999771#0.1574__1__background.3" type="background" depart="108.23" departLane="best">
        <route edges="471999771#0.1574 845412821#0"/>
    </vehicle>
    <vehicle id="845412822.360__1__background.5" type="background" depart="111.52" departLane="best">
        <route edges="845412822.360 298932650#1"/>
    </vehicle>
    <vehicle id="471999771#0.1574__1__background.4" type="background" depart="116.15" departLane="best">
        <route edges="471999771#0.1574 298932653#1"/>
    </vehicle>
    <vehicle id="845412822.360__2__background.0" type="background" depart="120.03" departLane="best">
        <route edges="845412822.360 298932653#1"/>
    </vehicle>
    <vehicle id="458749037#0.1098__2__background.0" type="background" depart="124.16" departLane="best">
        <route edges="458749037#0.1098 845412821#0"/>
    </vehicle>
    <vehicle id="471999771#0.1574__2__background.0" type="background" depart="124.54" departLane="best">
        <route edges="471999771#0.1574 298932653#1"/>
    </vehicle>
    <vehicle id="458749037#0.1098__2__background.1" type="background" depart="125.99" departLane="best">
        <route edges="458749037#0.1098 298932650#1"/>
    </vehicle>
    <vehicle id="458749037#0.1098__2__background.2" type="background" depart="127.95" departLane="best">
        <route edges="458749037#0.1098 298932650#1"/>
    </vehicle>
    <vehicle id="845412822.360__2__background.1" type="background" depart="129.31" departLane="best">
        <route edges="845412822.360 298932653#1"/>
    </vehicle>
    <vehicle id="845412822.360__2__background.2" type="background" depart="131.26" departLane="best">
        <route edges="845412822.360 298932650#1"/>
    </vehicle>
    <vehicle id="845412822.360__2__background.3" type="background" depart="135.08" departLane="best">
        <route edges="845412822.360 298932650#1"/>
    </vehicle>
    <vehicle id="471999771#0.1574__2__background.1" type="background" depart="145.22" departLane="best">
        <route edges="471999771#0.1574 845412821#0"/>
    </vehicle>
    <vehicle id="471999771#0.1574__2__background.2" type="background" depart="146.23" departLane="best">
        <route edges="471999771#0.1574 845412821#0"/>
    </vehicle>
    <vehicle id="471999771#0.1574__2__background.3" type="background" depart="146.40" departLane="best">
        <route edges="471999771#0.1574 845412821#0"/>
    </vehicle>
    <vehicle id="458749037#0.1098__2__background.3" type="background" depart="148.29" departLane="best">
        <route edges="458749037#0.1098 298932650#1"/>
    </vehicle>
    <vehicle id="471999771#0.1574__2__background.4" type="background" depart="150.89" departLane="best">
        <route edges="471999771#0.1574 298932653#1"/>
    </vehicle>
    <vehicle id="471999771#0.1574__2__background.5" type="background" depart="151.08" departLane="best">
        <route edges="471999771#0.1574 298932653#1"/>
    </vehicle>
    <vehicle id="458749037#0.1098__2__background.4" type="background" depart="153.66" departLane="best">
        <route edges="458749037#0.1098 298932650#1"/>
    </vehicle>
    <vehicle id="471999771#0.1574__2__background.6" type="background" depart="159.15" departLane="best">
        <route edges="471999771#0.1574 845412821#0"/>
    </vehicle>
    <vehicle id="471999771#0.1574__2__background.7" type="background" depart="163.19" departLane="best">
        <route edges="471999771#0.1574 845412821#0"/>
    </vehicle>
    <vehicle id="458749037#0.1098__2__background.5" type="background" depart="166.02" departLane="best">
        <route edges="458749037#0.1098 845412821#0"/>
    </vehicle>
    <vehicle id="471999771#0.1574__2__background.8" type="background" depart="168.14" departLane="best">
        <route edges="471999771#0.1574 845412821#0"/>
    </vehicle>
    <vehicle id="845412822.360__2__background.4" type="background" depart="169.14" departLane="best">
        <route edges="845412822.360 298932653#1"/>
    </vehicle>
    <vehicle id="845412822.360__2__background.5" type="background" depart="171.42" departLane="best">
        <route edges="845412822.360 298932653#1"/>
    </vehicle>
    <vehicle id="458749037#0.1098__2__background.6" type="background" depart="173.45" departLane="best">
        <route edges="458749037#0.1098 298932650#1"/>
    </vehicle>
    <vehicle id="845412822.360__2__background.6" type="background" depart="173.47" departLane="best">
        <route edges="845412822.360 298932653#1"/>
    </vehicle>
    <vehicle id="845412822.360__2__background.7" type="background" depart="174.52" departLane="best">
        <route edges="845412822.360 298932650#1"/>
    </vehicle>
    <vehicle id="471999771#0.1574__2__background.9" type="background" depart="177.89" departLane="best">
        <route edges="471999771#0.1574 298932653#1"/>
    </vehicle>
    <vehicle id="471999771#0.1574__2__background.10" type="background" depart="179.78" departLane="best">
        <route edges="471999771#0.1574 298932653#1"/>
    </vehicle>
    <vehicle id="458749037#0.1098__3__background.0" type="background" depart="181.54" departLane="best">
        <route edges="458749037#0.1098 298932650#1"/>
    </vehicle>
    <vehicle id="845412822.360__3__background.0" type="background" depart="181.72" departLane="best">
        <route edges="845412822.360 298932653#1"/>
    </vehicle>
    <vehicle id="471999771#0.1574__3__background.0" type="background" depart="183.43" departLane="best">
        <route edges="471999771#0.1574 845412821#0"/>
    </vehicle>
    <vehicle id="471999771#0.1574__3__background.1" type="background" depart="183.47" departLane="best">
        <route edges="471999771#0.1574 298932653#1"/>
    </vehicle>
    <vehicle id="471999771#0.1574__3__background.2" type="background" depart="190.17" departLane="best">
        <route edges="471999771#0.1574 298932653#1"/>
    </vehicle>
    <vehicle id="471999771#0.1574__3__background.3" type="background" depart="192.29" departLane="best">
        <route edges="471999771#0.1574 845412821#0"/>
    </vehicle>
    <vehicle id="471999771#0.1574__3__background.4" type="background" depart="192.41" departLane="best">
        <route edges="471999771#0.1574 845412821#0"/>
    </vehicle>
    <vehicle id="471999771#0.1574__3__background.5" type="background" depart="193.67" departLane="best">
        <route edges="471999771#0.1574 845412821#0"/>
    </vehicle>
    <vehicle id="845412822.360__3__background.1" type="background" depart="194.01" departLane="best">
        <route edges="845412822.360 298932653#1"/>
    </vehicle>
    <vehicle id="458749037#0.1098__3__background.1" type="background" depart="195.59" departLane="best">
        <route edges="458749037#0.1098 298932650#1"/>
    </vehicle>
    <vehicle id="471999771#0.1574__3__background.6" type="background" depart="196.46" departLane="best">
        <route edges="471999771#0.1574 845412821#0"/>
    </vehicle>
    <vehicle id="471999771#0.1574__3__background.7" type="background" depart="196.73" departLane="best">
        <route edges="471999771#0.1574 298932653#1"/>
    </vehicle>
    <vehicle id="458749037#0.1098__3__background.2" type="background" depart="198.84" departLane="best">
        <route edges="458749037#0.1098 845412821#0"/>
    </vehicle>
    <vehicle id="471999771#0.1574__3__background.8" type="background" depart="200.50" departLane="best">
        <route edges="471999771#0.1574 298932653#1"/>
    </vehicle>
    <vehicle id="845412822.360__3__background.2" type="background" depart="203.16" departLane="best">
        <route edges="845412822.360 298932653#1"/>
    </vehicle>
    <vehicle id="845412822.360__3__background.3" type="background" depart="207.35" departLane="best">
        <route edges="845412822.360 298932653#1"/>
    </vehicle>
    <vehicle id="458749037#0.1098__3__background.3" type="background" depart="209.83" departLane="best">
        <route edges="458749037#0.1098 845412821#0"/>
    </vehicle>
    <vehicle id="845412822.360__3__background.4" type="background" depart="215.70" departLane="best">
        <route edges="845412822.360 298932653#1"/>
    </vehicle>
    <vehicle id="471999771#0.1574__3__background.9" type="background" depart="217.85" departLane="best">
        <route edges="471999771#0.1574 298932653#1"/>
    </vehicle>
    <vehicle id="458749037#0.1098__3__background.4" type="background" depart="222.87" departLane="best">
        <route edges="458749037#0.1098 298932650#1"/>
    </vehicle>
    <vehicle id="458749037#0.1098__3__background.5" type="background" depart="223.28" departLane="best">
        <route edges="458749037#0.1098 845412821#0"/>
    </vehicle>
    <vehicle id="845412822.360__3__background.5" type="background" depart="224.98" departLane="best">
        <route edges="845412822.360 298932653#1"/>
    </vehicle>
    <vehicle id="458749037#0.1098__3__background.6" type="background" depart="225.90" departLane="best">
        <route edges="458749037#0.1098 845412821#0"/>
    </vehicle>
    <vehicle id="845412822.360__3__background.6" type="background" depart="227.92" departLane="best">
        <route edges="845412822.360 298932650#1"/>
    </vehicle>
    <vehicle id="471999771#0.1574__3__background.10" type="background" depart="230.49" departLane="best">
        <route edges="471999771#0.1574 845412821#0"/>
    </vehicle>
    <vehicle id="845412822.360__3__background.7" type="background" depart="232.24" departLane="best">
        <route edges="845412822.360 298932650#1"/>
    </vehicle>
    <vehicle id="458749037#0.1098__4__background.0" type="background" depart="240.09" departLane="best">
        <route edges="458749037#0.1098 845412821#0"/>
    </vehicle>
    <vehicle id="458749037#0.1098__4__background.1" type="background" depart="240.19" departLane="best">
        <route edges="458749037#0.1098 298932650#1"/>
    </vehicle>
    <vehicle id="471999771#0.1574__4__background.0" type="background" depart="243.60" departLane="best">
        <route edges="471999771#0.1574 298932653#1"/>
    </vehicle>
    <vehicle id="458749037#0.1098__4__background.2" type="background" depart="244.84" departLane="best">
        <route edges="458749037#0.1098 298932650#1"/>
    </vehicle>
    <vehicle id="471999771#0.1574__4__background.1" type="background" depart="248.79" departLane="best">
        <route edges="471999771#0.1574 845412821#0"/>
    </vehicle>
    <vehicle id="845412822.360__4__background.0" type="background" depart="249.26" departLane="best">
        <route edges="845412822.360 298932653#1"/>
    </vehicle>
    <vehicle id="845412822.360__4__background.1" type="background" depart="257.41" departLane="best">
        <route edges="845412822.360 298932653#1"/>
    </vehicle>
    <vehicle id="471999771#0.1574__4__background.2" type="background" depart="258.82" departLane="best">
        <route edges="471999771#0.1574 298932653#1"/>
    </vehicle>
    <vehicle id="471999771#0.1574__4__background.3" type="background" depart="261.25" departLane="best">
        <route edges="471999771#0.1574 845412821#0"/>
    </vehicle>
    <vehicle id="845412822.360__4__background.2" type="background" depart="262.40" departLane="best">
        <route edges="845412822.360 298932653#1"/>
    </vehicle>
    <vehicle id="845412822.360__4__background.3" type="background" depart="264.84" departLane="best">
        <route edges="845412822.360 298932653#1"/>
    </vehicle>
    <vehicle id="458749037#0.1098__4__background.3" type="background" depart="265.80" departLane="best">
        <route edges="458749037#0.1098 298932650#1"/>
    </vehicle>
    <vehicle id="458749037#0.1098__4__background.4" type="background" depart="265.86" departLane="best">
        <route edges="458749037#0.1098 298932650#1"/>
    </vehicle>
    <vehicle id="845412822.360__4__background.4" type="background" depart="267.54" departLane="best">
        <route edges="845412822.360 298932653#1"/>
    </vehicle>
    <vehicle id="845412822.360__4__background.5" type="background" depart="269.73" departLane="best">
        <route edges="845412822.360 298932650#1"/>
    </vehicle>
    <vehicle id="458749037#0.1098__4__background.5" type="background" depart="271.85" departLane="best">
        <route edges="458749037#0.1098 845412821#0"/>
    </vehicle>
    <vehicle id="471999771#0.1574__4__background.4" type="background" depart="274.31" departLane="best">
        <route edges="471999771#0.1574 845412821#0"/>
    </vehicle>
    <vehicle id="471999771#0.1574__4__background.5" type="background" depart="274.60" departLane="best">
        <route edges="471999771#0.1574 298932653#1"/>
    </vehicle>
    <vehicle id="471999771#0.1574__4__background.6" type="background" depart="276.68" departLane="best">
        <route edges="471999771#0.1574 298932653#1"/>
    </vehicle>
    <vehicle id="471999771#0.1574__4__background.7" type="background" depart="277.11" departLane="best">
        <route edges="471999771#0.1574 298932653#1"/>
    </vehicle>
    <vehicle id="845412822.360__4__background.6" type="background" depart="277.26" departLane="best">
        <route edges="845412822.360 298932650#1"/>
    </vehicle>
    <vehicle id="458749037#0.1098__4__background.6" type="background" depart="279.52" departLane="best">
        <route edges="458749037#0.1098 845412821#0"/>
    </vehicle>
    <vehicle id="471999771#0.1574__4__background.8" type="background" depart="284.11" departLane="best">
        <route edges="471999771#0.1574 298932653#1"/>
    </vehicle>
    <vehicle id="471999771#0.1574__4__background.9" type="background" depart="285.63" departLane="best">
        <route edges="471999771#0.1574 298932653#1"/>
    </vehicle>
    <vehicle id="471999771#0.1574__4__background.10" type="background" depart="288.93" departLane="best">
        <route edges="471999771#0.1574 845412821#0"/>
    </vehicle>
    <vehicle id="458749037#0.1098__4__background.7" type="background" depart="290.44" departLane="best">
        <route edges="458749037#0.1098 298932650#1"/>
    </vehicle>
    <vehicle id="471999771#0.1574__4__background.11" type="background" depart="291.29" departLane="best">
        <route edges="471999771#0.1574 298932653#1"/>
    </vehicle>
    <vehicle id="845412822.360__4__background.7" type="background" depart="292.22" departLane="best">
        <route edges="845412822.360 298932653#1"/>
    </vehicle>
    <vehicle id="471999771#0.1574__4__background.12" type="background" depart="294.15" departLane="best">
        <route edges="471999771#0.1574 845412821#0"/>
    </vehicle>
    <vehicle id="845412822.360__4__background.8" type="background" depart="295.70" departLane="best">
        <route edges="845412822.360 298932650#1"/>
    </vehicle>
    <vehicle id="845412822.360__4__background.9" type="background" depart="295.99" departLane="best">
        <route edges="845412822.360 298932650#1"/>
    </vehicle>
    <vehicle id="458749037#0.1098__4__background.8" type="background" depart="298.72" departLane="best">
        <route edges="458749037#0.1098 298932650#1"/>
    </vehicle>
    <vehicle id="471999771#0.1574__5__background.0" type="background" depart="301.21" departLane="best">
        <route edges="471999771#0.1574 845412821#0"/>
    </vehicle>
    <vehicle id="471999771#0.1574__5__background.1" type="background" depart="307.55" departLane="best">
        <route edges="471999771#0.1574 845412821#0"/>
    </vehicle>
    <vehicle id="845412822.360__5__background.0" type="background" depart="310.58" departLane="best">
        <route edges="845412822.360 298932650#1"/>
    </vehicle>
    <vehicle id="471999771#0.1574__5__background.2" type="background" depart="315.95" departLane="best">
        <route edges="471999771#0.1574 298932653#1"/>
    </vehicle>
    <vehicle id="471999771#0.1574__5__background.3" type="background" depart="318.20" departLane="best">
        <route edges="471999771#0.1574 845412821#0"/>
    </vehicle>
    <vehicle id="845412822.360__5__background.1" type="background" depart="320.24" departLane="best">
        <route edges="845412822.360 298932650#1"/>
    </vehicle>
    <vehicle id="471999771#0.1574__5__background.4" type="background" depart="322.06" departLane="best">
        <route edges="471999771#0.1574 845412821#0"/>
    </vehicle>
    <vehicle id="458749037#0.1098__5__background.0" type="background" depart="323.58" departLane="best">
        <route edges="458749037#0.1098 845412821#0"/>
    </vehicle>
    <vehicle id="458749037#0.1098__5__background.1" type="background" depart="325.07" departLane="best">
        <route edges="458749037#0.1098 845412821#0"/>
    </vehicle>
    <vehicle id="458749037#0.1098__5__background.2" type="background" depart="326.74" departLane="best">
        <route edges="458749037#0.1098 298932650#1"/>
    </vehicle>
    <vehicle id="845412822.360__5__background.2" type="background" depart="327.01" departLane="best">
        <route edges="845412822.360 298932650#1"/>
    </vehicle>
    <vehicle id="471999771#0.1574__5__background.5" type="background" depart="328.08" departLane="best">
        <route edges="471999771#0.1574 845412821#0"/>
    </vehicle>
    <vehicle id="845412822.360__5__background.3" type="background" depart="328.11" departLane="best">
        <route edges="845412822.360 298932653#1"/>
    </vehicle>
    <vehicle id="845412822.360__5__background.4" type="background" depart="330.61" departLane="best">
        <route edges="845412822.360 298932650#1"/>
    </vehicle>
    <vehicle id="458749037#0.1098__5__background.3" type="background" depart="331.72" departLane="best">
        <route edges="458749037#0.1098 298932650#1"/>
    </vehicle>
    <vehicle id="458749037#0.1098__5__background.4" type="background" depart="333.39" departLane="best">
        <route edges="458749037#0.1098 845412821#0"/>
    </vehicle>
    <vehicle id="845412822.360__5__background.5" type="background" depart="333.57" departLane="best">
        <route edges="845412822.360 298932653#1"/>
    </vehicle>
    <vehicle id="471999771#0.1574__5__background.6" type="background" depart="337.22" departLane="best">
        <route edges="471999771#0.1574 845412821#0"/>
    </vehicle>
    <vehicle id="458749037#0.1098__5__background.5" type="background" depart="337.41" departLane="best">
        <route edges="458749037#0.1098 845412821#0"/>
    </vehicle>
    <vehicle id="458749037#0.1098__5__background.6" type="background" depart="337.44" departLane="best">
        <route edges="458749037#0.1098 845412821#0"/>
    </vehicle>
    <vehicle id="471999771#0.1574__5__background.7" type="background" depart="339.01" departLane="best">
        <route edges="471999771#0.1574 845412821#0"/>
    </vehicle>
    <vehicle id="845412822.360__5__background.6" type="background" depart="339.97" departLane="best">
        <route edges="845412822.360 298932653#1"/>
    </vehicle>
    <vehicle id="471999771#0.1574__5__background.8" type="background" depart="341.40" departLane="best">
        <route edges="471999771#0.1574 298932653#1"/>
    </vehicle>
    <vehicle id="845412822.360__5__background.7" type="background" depart="341.64" departLane="best">
        <route edges="845412822.360 298932653#1"/>
    </vehicle>
    <vehicle id="845412822.360__5__background.8" type="background" depart="342.09" departLane="best">
        <route edges="845412822.360 298932650#1"/>
    </vehicle>
    <vehicle id="458749037#0.1098__5__background.7" type="background" depart="344.76" departLane="best">
        <route edges="458749037#0.1098 845412821#0"/>
    </vehicle>
    <vehicle id="845412822.360__5__background.9" type="background" depart="346.09" departLane="best">
        <route edges="845412822.360 298932650#1"/>
    </vehicle>
    <vehicle id="471999771#0.1574__5__background.9" type="background" depart="350.50" departLane="best">
        <route edges="471999771#0.1574 298932653#1"/>
    </vehicle>
    <vehicle id="458749037#0.1098__5__background.8" type="background" depart="356.58" departLane="best">
        <route edges="458749037#0.1098 298932650#1"/>
    </vehicle>
    <vehicle id="471999771#0.1574__5__background.10" type="background" depart="357.53" departLane="best">
        <route edges="471999771#0.1574 298932653#1"/>
    </vehicle>
    <vehicle id="471999771#0.1574__5__background.11" type="background" depart="357.56" departLane="best">
        <route edges="471999771#0.1574 845412821#0"/>
    </vehicle>
    <vehicle id="471999771#0.1574__5__background.12" type="background" depart="359.25" departLane="best">
        <route edges="471999771#0.1574 298932653#1"/>
    </vehicle>
    <vehicle id="458749037#0.1098__6__background.0" type="background" depart="363.44" departLane="best">
        <route edges="458749037#0.1098 298932650#1"/>
    </vehicle>
    <vehicle id="458749037#0.1098__6__background.1" type="background" depart="363.47" departLane="best">
        <route edges="458749037#0.1098 298932650#1"/>
    </vehicle>
    <vehicle id="471999771#0.1574__6__background.0" type="background" depart="364.98" departLane="best">
        <route edges="471999771#0.1574 298932653#1"/>
    </vehicle>
    <vehicle id="845412822.360__6__background.0" type="background" depart="365.02" departLane="best">
        <route edges="845412822.360 298932650#1"/>
    </vehicle>
    <vehicle id="458749037#0.1098__6__background.2" type="background" depart="365.34" departLane="best">
        <route edges="458749037#0.1098 298932650#1"/>
    </vehicle>
    <vehicle id="471999771#0.1574__6__background.1" type="background" depart="366.85" departLane="best">
        <route edges="471999771#0.1574 845412821#0"/>
    </vehicle>
    <vehicle id="471999771#0.1574__6__background.2" type="background" depart="367.40" departLane="best">
        <route edges="471999771#0.1574 845412821#0"/>
    </vehicle>
    <vehicle id="471999771#0.1574__6__background.3" type="background" depart="369.68" departLane="best">
        <route edges="471999771#0.1574 298932653#1"/>
    </vehicle>
    <vehicle id="458749037#0.1098__6__background.3" type="background" depart="370.71" departLane="best">
        <route edges="458749037#0.1098 845412821#0"/>
    </vehicle>
    <vehicle id="458749037#0.1098__6__background.4" type="background" depart="370.81" departLane="best">
        <route edges="458749037#0.1098 845412821#0"/>
    </vehicle>
    <vehicle id="471999771#0.1574__6__background.4" type="background" depart="373.00" departLane="best">
        <route edges="471999771#0.1574 845412821#0"/>
    </vehicle>
    <vehicle id="458749037#0.1098__6__background.5" type="background" depart="373.15" departLane="best">
        <route edges="458749037#0.1098 845412821#0"/>
    </vehicle>
    <vehicle id="458749037#0.1098__6__background.6" type="background" depart="373.62" departLane="best">
        <route edges="458749037#0.1098 845412821#0"/>
    </vehicle>
    <vehicle id="845412822.360__6__background.1" type="background" depart="373.90" departLane="best">
        <route edges="845412822.360 298932650#1"/>
    </vehicle>
    <vehicle id="845412822.360__6__background.2" type="background" depart="384.06" departLane="best">
        <route edges="845412822.360 298932653#1"/>
    </vehicle>
    <vehicle id="845412822.360__6__background.3" type="background" depart="386.84" departLane="best">