<?xml version="1.0" encoding="UTF-8"?>

<!-- generated on 2026-07-02T17:14:05.058929+08:00 by Eclipse SUMO jtrrouter 1.27.0
<jtrrouterConfiguration xmlns:xsi="http://www.w3.org/2001/XMLSchema-instance" xsi:noNamespaceSchemaLocation="http://sumo.dlr.de/xsd/jtrrouterConfiguration.xsd">

    <input>
        <net-file value="/home/wmn/code/research/SingleTSC_TranSimHub/junction_scenarios/Beijing_Beihuan/./networks/normal.net.xml"/>
        <route-files value="/home/wmn/code/research/SingleTSC_TranSimHub/junction_scenarios/Beijing_Beihuan/./testflow.trip.xml"/>
        <turn-ratio-files value="/home/wmn/code/research/SingleTSC_TranSimHub/junction_scenarios/Beijing_Beihuan/./testflow.turndefs.xml"/>
    </input>

    <output>
        <output-file value="/home/wmn/code/research/SingleTSC_TranSimHub/junction_scenarios/Beijing_Beihuan/./routes/increasing_demand.rou.xml"/>
    </output>

    <processing>
        <randomize-flows value="True"/>
        <accept-all-destinations value="True"/>
    </processing>

    <defaults>
        <departlane value="best"/>
    </defaults>

    <report>
        <no-warnings value="true"/>
    </report>

    <random_number>
        <seed value="777"/>
    </random_number>

</jtrrouterConfiguration>
-->

<routes xmlns:xsi="http://www.w3.org/2001/XMLSchema-instance" xsi:noNamespaceSchemaLocation="http://sumo.dlr.de/xsd/routes_file.xsd">
    <vType id="background" length="5.00" color="220,220,220" tau="1.0"/>
    <vehicle id="252712271#0.589__0__background.0" type="background" depart="3.58" departLane="best">
        <route edges="252712271#0.589 -157863208#1"/>
    </vehicle>
    <vehicle id="252712271#0.589__0__background.1" type="background" depart="6.54" departLane="best">
        <route edges="252712271#0.589 -157863208#1"/>
    </vehicle>
    <vehicle id="-1106233488.150__0__background.0" type="background" depart="6.80" departLane="best">
        <route edges="-1106233488.150 -157863208#1"/>
    </vehicle>
    <vehicle id="252712271#0.589__0__background.2" type="background" depart="10.88" departLane="best">
        <route edges="252712271#0.589 -157863208#1"/>
    </vehicle>
    <vehicle id="252712271#0.589__0__background.3" type="background" depart="11.03" departLane="best">
        <route edges="252712271#0.589 -157863208#1"/>
    </vehicle>
    <vehicle id="-1106233488.150__0__background.1" type="background" depart="12.32" departLane="best">
        <route edges="-1106233488.150 -252712271#1"/>
    </vehicle>
    <vehicle id="157863208#0.1590__0__background.0" type="background" depart="15.93" departLane="best">
        <route edges="157863208#0.1590 1106233488"/>
    </vehicle>
    <vehicle id="252712271#0.589__0__background.4" type="background" depart="17.37" departLane="best">
        <route edges="252712271#0.589 1106233488"/>
    </vehicle>
    <vehicle id="-1106233488.150__0__background.2" type="background" depart="19.28" departLane="best">
        <route edges="-1106233488.150 -157863208#1"/>
    </vehicle>
    <vehicle id="-1106233488.150__0__background.3" type="background" depart="20.32" departLane="best">
        <route edges="-1106233488.150 -157863208#1"/>
    </vehicle>
    <vehicle id="252712271#0.589__0__background.5" type="background" depart="25.90" departLane="best">
        <route edges="252712271#0.589 -157863208#1"/>
    </vehicle>
    <vehicle id="157863208#0.1590__0__background.1" type="background" depart="26.70" departLane="best">
        <route edges="157863208#0.1590 1106233488"/>
    </vehicle>
    <vehicle id="-1106233488.150__0__background.4" type="background" depart="26.95" departLane="best">
        <route edges="-1106233488.150 -252712271#1"/>
    </vehicle>
    <vehicle id="252712271#0.589__0__background.6" type="background" depart="28.79" departLane="best">
        <route edges="252712271#0.589 1106233488"/>
    </vehicle>
    <vehicle id="157863208#0.1590__0__background.2" type="background" depart="36.79" departLane="best">
        <route edges="157863208#0.1590 -252712271#1"/>
    </vehicle>
    <vehicle id="157863208#0.1590__0__background.3" type="background" depart="40.54" departLane="best">
        <route edges="157863208#0.1590 -252712271#1"/>
    </vehicle>
    <vehicle id="252712271#0.589__0__background.7" type="background" depart="40.85" departLane="best">
        <route edges="252712271#0.589 1106233488"/>
    </vehicle>
    <vehicle id="-1106233488.150__0__background.5" type="background" depart="41.30" departLane="best">
        <route edges="-1106233488.150 -252712271#1"/>
    </vehicle>
    <vehicle id="252712271#0.589__0__background.8" type="background" depart="44.46" departLane="best">
        <route edges="252712271#0.589 -157863208#1"/>
    </vehicle>
    <vehicle id="157863208#0.1590__0__background.4" type="background" depart="47.92" departLane="best">
        <route edges="157863208#0.1590 -252712271#1"/>
    </vehicle>
    <vehicle id="157863208#0.1590__0__background.5" type="background" depart="52.13" departLane="best">
        <route edges="157863208#0.1590 -252712271#1"/>
    </vehicle>
    <vehicle id="157863208#0.1590__0__background.6" type="background" depart="54.94" departLane="best">
        <route edges="157863208#0.1590 1106233488"/>
    </vehicle>
    <vehicle id="252712271#0.589__1__background.0" type="background" depart="60.84" departLane="best">
        <route edges="252712271#0.589 -157863208#1"/>
    </vehicle>
    <vehicle id="252712271#0.589__1__background.1" type="background" depart="64.16" departLane="best">
        <route edges="252712271#0.589 -157863208#1"/>
    </vehicle>
    <vehicle id="157863208#0.1590__1__background.0" type="background" depart="65.68" departLane="best">
        <route edges="157863208#0.1590 1106233488"/>
    </vehicle>
    <vehicle id="-1106233488.150__1__background.0" type="background" depart="65.99" departLane="best">
        <route edges="-1106233488.150 -252712271#1"/>
    </vehicle>
    <vehicle id="157863208#0.1590__1__background.1" type="background" depart="67.71" departLane="best">
        <route edges="157863208#0.1590 1106233488"/>
    </vehicle>
    <vehicle id="252712271#0.589__1__background.2" type="background" depart="67.95" departLane="best">
        <route edges="252712271#0.589 -157863208#1"/>
    </vehicle>
    <vehicle id="157863208#0.1590__1__background.2" type="background" depart="70.82" departLane="best">
        <route edges="157863208#0.1590 -252712271#1"/>
    </vehicle>
    <vehicle id="157863208#0.1590__1__background.3" type="background" depart="75.68" departLane="best">
        <route edges="157863208#0.1590 -252712271#1"/>
    </vehicle>
    <vehicle id="252712271#0.589__1__background.3" type="background" depart="76.75" departLane="best">
        <route edges="252712271#0.589 -157863208#1"/>
    </vehicle>
    <vehicle id="252712271#0.589__1__background.4" type="background" depart="83.35" departLane="best">
        <route edges="252712271#0.589 1106233488"/>
    </vehicle>
    <vehicle id="-1106233488.150__1__background.1" type="background" depart="85.22" departLane="best">
        <route edges="-1106233488.150 -252712271#1"/>
    </vehicle>
    <vehicle id="-1106233488.150__1__background.2" type="background" depart="88.29" departLane="best">
        <route edges="-1106233488.150 -252712271#1"/>
    </vehicle>
    <vehicle id="-1106233488.150__1__background.3" type="background" depart="93.66" departLane="best">
        <route edges="-1106233488.150 -252712271#1"/>
    </vehicle>
    <vehicle id="157863208#0.1590__1__background.4" type="background" depart="95.91" departLane="best">
        <route edges="157863208#0.1590 1106233488"/>
    </vehicle>
    <vehicle id="-1106233488.150__1__background.4" type="background" depart="103.19" departLane="best">
        <route edges="-1106233488.150 -252712271#1"/>
    </vehicle>
    <vehicle id="252712271#0.589__1__background.5" type="background" depart="106.02" departLane="best">
        <route edges="252712271#0.589 -157863208#1"/>
    </vehicle>
    <vehicle id="252712271#0.589__1__background.6" type="background" depart="106.02" departLane="best">
        <route edges="252712271#0.589 1106233488"/>
    </vehicle>
    <vehicle id="-1106233488.150__1__background.5" type="background" depart="108.14" departLane="best">
        <route edges="-1106233488.150 -157863208#1"/>
    </vehicle>
    <vehicle id="157863208#0.1590__1__background.5" type="background" depart="108.23" departLane="best">
        <route edges="157863208#0.1590 -252712271#1"/>
    </vehicle>
    <vehicle id="252712271#0.589__1__background.7" type="background" depart="111.52" departLane="best">
        <route edges="252712271#0.589 -157863208#1"/>
    </vehicle>
    <vehicle id="252712271#0.589__1__background.8" type="background" depart="113.45" departLane="best">
        <route edges="252712271#0.589 -157863208#1"/>
    </vehicle>
    <vehicle id="157863208#0.1590__1__background.6" type="background" depart="116.15" departLane="best">
        <route edges="157863208#0.1590 1106233488"/>
    </vehicle>
    <vehicle id="157863208#0.1590__2__background.0" type="background" depart="120.03" departLane="best">
        <route edges="157863208#0.1590 1106233488"/>
    </vehicle>
    <vehicle id="-1106233488.150__2__background.0" type="background" depart="121.54" departLane="best">
        <route edges="-1106233488.150 -157863208#1"/>
    </vehicle>
    <vehicle id="-1106233488.150__2__background.1" type="background" depart="123.43" departLane="best">
        <route edges="-1106233488.150 -157863208#1"/>
    </vehicle>
    <vehicle id="157863208#0.1590__2__background.1" type="background" depart="124.54" departLane="best">
        <route edges="157863208#0.1590 1106233488"/>
    </vehicle>
    <vehicle id="252712271#0.589__2__background.0" type="background" depart="129.31" departLane="best">
        <route edges="252712271#0.589 1106233488"/>
    </vehicle>
    <vehicle id="252712271#0.589__2__background.1" type="background" depart="131.26" departLane="best">
        <route edges="252712271#0.589 1106233488"/>
    </vehicle>
    <vehicle id="-1106233488.150__2__background.2" type="background" depart="132.41" departLane="best">
        <route edges="-1106233488.150 -252712271#1"/>
    </vehicle>
    <vehicle id="-1106233488.150__2__background.3" type="background" depart="133.67" departLane="best">
        <route edges="-1106233488.150 -157863208#1"/>
    </vehicle>
    <vehicle id="252712271#0.589__2__background.2" type="background" depart="135.08" departLane="best">
        <route edges="252712271#0.589 1106233488"/>
    </vehicle>
    <vehicle id="252712271#0.589__2__background.3" type="background" depart="135.59" departLane="best">
        <route edges="252712271#0.589 -157863208#1"/>
    </vehicle>
    <vehicle id="-1106233488.150__2__background.4" type="background" depart="136.46" departLane="best">
        <route edges="-1106233488.150 -252712271#1"/>
    </vehicle>
    <vehicle id="252712271#0.589__2__background.4" type="background" depart="138.84" departLane="best">
        <route edges="252712271#0.589 -157863208#1"/>
    </vehicle>
    <vehicle id="-1106233488.150__2__background.5" type="background" depart="140.50" departLane="best">
        <route edges="-1106233488.150 -252712271#1"/>
    </vehicle>
    <vehicle id="157863208#0.1590__2__background.2" type="background" depart="146.23" departLane="best">
        <route edges="157863208#0.1590 1106233488"/>
    </vehicle>
    <vehicle id="157863208#0.1590__2__background.3" type="background" depart="146.40" departLane="best">
        <route edges="157863208#0.1590 1106233488"/>
    </vehicle>
    <vehicle id="252712271#0.589__2__background.5" type="background" depart="149.83" departLane="best">
        <route edges="252712271#0.589 1106233488"/>
    </vehicle>
    <vehicle id="157863208#0.1590__2__background.4" type="background" depart="150.89" departLane="best">
        <route edges="157863208#0.1590 1106233488"/>
    </vehicle>
    <vehicle id="157863208#0.1590__2__background.5" type="background" depart="151.08" departLane="best">
        <route edges="157863208#0.1590 1106233488"/>
    </vehicle>
    <vehicle id="157863208#0.1590__2__background.6" type="background" depart="159.15" departLane="best">
        <route edges="157863208#0.1590 -252712271#1"/>
    </vehicle>
    <vehicle id="252712271#0.589__2__background.6" type="background" depart="162.87" departLane="best">
        <route edges="252712271#0.589 -157863208#1"/>
    </vehicle>
    <vehicle id="252712271#0.589__2__background.7" type="background" depart="163.28" departLane="best">
        <route edges="252712271#0.589 -157863208#1"/>
    </vehicle>
    <vehicle id="-1106233488.150__2__background.6" type="background" depart="165.90" departLane="best">
        <route edges="-1106233488.150 -252712271#1"/>
    </vehicle>
    <vehicle id="157863208#0.1590__2__background.7" type="background" depart="169.14" departLane="best">
        <route edges="157863208#0.1590 -252712271#1"/>
    </vehicle>
    <vehicle id="252712271#0.589__2__background.8" type="background" depart="171.42" departLane="best">
        <route edges="252712271#0.589 1106233488"/>
    </vehicle>
    <vehicle id="252712271#0.589__2__background.9" type="background" depart="173.47" departLane="best">
        <route edges="252712271#0.589 -157863208#1"/>
    </vehicle>
    <vehicle id="252712271#0.589__2__background.10" type="background" depart="174.52" departLane="best">
        <route edges="252712271#0.589 -157863208#1"/>
    </vehicle>
    <vehicle id="157863208#0.1590__2__background.8" type="background" depart="177.89" departLane="best">
        <route edges="157863208#0.1590 -252712271#1"/>
    </vehicle>
    <vehicle id="157863208#0.1590__2__background.9" type="background" depart="179.78" departLane="best">
        <route edges="157863208#0.1590 1106233488"/>
    </vehicle>
    <vehicle id="252712271#0.589__3__background.0" type="background" depart="180.09" departLane="best">
        <route edges="252712271#0.589 -157863208#1"/>
    </vehicle>
    <vehicle id="252712271#0.589__3__background.1" type="background" depart="180.19" departLane="best">
        <route edges="252712271#0.589 -157863208#1"/>
    </vehicle>
    <vehicle id="157863208#0.1590__3__background.0" type="background" depart="181.72" departLane="best">
        <route edges="157863208#0.1590 -252712271#1"/>
    </vehicle>
    <vehicle id="157863208#0.1590__3__background.1" type="background" depart="183.47" departLane="best">
        <route edges="157863208#0.1590 1106233488"/>
    </vehicle>
    <vehicle id="-1106233488.150__3__background.0" type="background" depart="184.84" departLane="best">
        <route edges="-1106233488.150 -252712271#1"/>
    </vehicle>
    <vehicle id="157863208#0.1590__3__background.2" type="background" depart="190.17" departLane="best">
        <route edges="157863208#0.1590 1106233488"/>
    </vehicle>
    <vehicle id="157863208#0.1590__3__background.3" type="background" depart="192.29" departLane="best">
        <route edges="157863208#0.1590 -252712271#1"/>
    </vehicle>
    <vehicle id="252712271#0.589__3__background.2" type="background" depart="194.01" departLane="best">
        <route edges="252712271#0.589 -157863208#1"/>
    </vehicle>
    <vehicle id="157863208#0.1590__3__background.4" type="background" depart="196.73" departLane="best">
        <route edges="157863208#0.1590 -252712271#1"/>
    </vehicle>
    <vehicle id="252712271#0.589__3__background.3" type="background" depart="203.16" departLane="best">
        <route edges="252712271#0.589 -157863208#1"/>
    </vehicle>
    <vehicle id="-1106233488.150__3__background.1" type="background" depart="205.80" departLane="best">
        <route edges="-1106233488.150 -157863208#1"/>
    </vehicle>
    <vehicle id="252712271#0.589__3__background.4" type="background" depart="205.86" departLane="best">
        <route edges="252712271#0.589 1106233488"/>
    </vehicle>
    <vehicle id="157863208#0.1590__3__background.5" type="background" depart="207.35" departLane="best">
        <route edges="157863208#0.1590 -252712271#1"/>
    </vehicle>
    <vehicle id="252712271#0.589__3__background.5" type="background" depart="211.85" departLane="best">
        <route edges="252712271#0.589 -157863208#1"/>
    </vehicle>
    <vehicle id="252712271#0.589__3__background.6" type="background" depart="215.70" departLane="best">
        <route edges="252712271#0.589 1106233488"/>
    </vehicle>
    <vehicle id="157863208#0.1590__3__background.6" type="background" depart="217.85" departLane="best">
        <route edges="157863208#0.1590 -252712271#1"/>
    </vehicle>
    <vehicle id="252712271#0.589__3__background.7" type="background" depart="219.52" departLane="best">
        <route edges="252712271#0.589 -157863208#1"/>
    </vehicle>
    <vehicle id="-1106233488.150__3__background.2" type="background" depart="222.11" departLane="best">
        <route edges="-1106233488.150 -252712271#1"/>
    </vehicle>
    <vehicle id="-1106233488.150__3__background.3" type="background" depart="222.53" departLane="best">
        <route edges="-1106233488.150 -252712271#1"/>
    </vehicle>
    <vehicle id="-1106233488.150__3__background.4" type="background" depart="223.32" departLane="best">
        <route edges="-1106233488.150 -157863208#1"/>
    </vehicle>
    <vehicle id="-1106233488.150__3__background.5" type="background" depart="223.99" departLane="best">
        <route edges="-1106233488.150 -157863208#1"/>
    </vehicle>
    <vehicle id="157863208#0.1590__3__background.7" type="background" depart="224.98" departLane="best">
        <route edges="157863208#0.1590 -252712271#1"/>
    </vehicle>
    <vehicle id="-1106233488.150__3__background.6" type="background" depart="225.08" departLane="best">
        <route edges="-1106233488.150 -252712271#1"/>
    </vehicle>
    <vehicle id="157863208#0.1590__3__background.8" type="background" depart="227.92" departLane="best">
        <route edges="157863208#0.1590 1106233488"/>
    </vehicle>
    <vehicle id="252712271#0.589__3__background.8" type="background" depart="230.44" departLane="best">
        <route edges="252712271#0.589 -157863208#1"/>
    </vehicle>
    <vehicle id="157863208#0.1590__3__background.9" type="background" depart="230.49" departLane="best">
        <route edges="157863208#0.1590 -252712271#1"/>
    </vehicle>
    <vehicle id="252712271#0.589__3__background.9" type="background" depart="232.24" departLane="best">
        <route edges="252712271#0.589 1106233488"/>
    </vehicle>
    <vehicle id="252712271#0.589__3__background.10" type="background" depart="238.72" departLane="best">
        <route edges="252712271#0.589 -157863208#1"/>
    </vehicle>
    <vehicle id="252712271#0.589__4__background.0" type="background" depart="241.21" departLane="best">
        <route edges="252712271#0.589 1106233488"/>
    </vehicle>
    <vehicle id="-1106233488.150__4__background.0" type="background" depart="247.55" departLane="best">
        <route edges="-1106233488.150 -252712271#1"/>
    </vehicle>
    <vehicle id="157863208#0.1590__4__background.0" type="background" depart="248.46" departLane="best">
        <route edges="157863208#0.1590 1106233488"/>
    </vehicle>
    <vehicle id="157863208#0.1590__4__background.1" type="background" depart="254.36" departLane="best">
        <route edges="157863208#0.1590 -252712271#1"/>
    </vehicle>
    <vehicle id="-1106233488.150__4__background.1" type="background" depart="255.95" departLane="best">
        <route edges="-1106233488.150 -157863208#1"/>
    </vehicle>
    <vehicle id="157863208#0.1590__4__background.2" type="background" depart="256.26" departLane="best">
        <route edges="157863208#0.1590 1106233488"/>
    </vehicle>
    <vehicle id="-1106233488.150__4__background.2" type="background" depart="258.20" departLane="best">
        <route edges="-1106233488.150 -252712271#1"/>
    </vehicle>
    <vehicle id="-1106233488.150__4__background.3" type="background" depart="262.06" departLane="best">
        <route edges="-1106233488.150 -157863208#1"/>
    </vehicle>
    <vehicle id="252712271#0.589__4__background.1" type="background" depart="263.58" departLane="best">
        <route edges="252712271#0.589 -157863208#1"/>
    </vehicle>
    <vehicle id="157863208#0.1590__4__background.3" type="background" depart="264.69" departLane="best">
        <route edges="157863208#0.1590 1106233488"/>
    </vehicle>
    <vehicle id="252712271#0.589__4__background.2" type="background" depart="265.07" departLane="best">
        <route edges="252712271#0.589 1106233488"/>
    </vehicle>
    <vehicle id="252712271#0.589__4__background.3" type="background" depart="266.74" departLane="best">
        <route edges="252712271#0.589 1106233488"/>
    </vehicle>
    <vehicle id="-1106233488.150__4__background.4" type="background" depart="268.08" departLane="best">
        <route edges="-1106233488.150 -252712271#1"/>
    </vehicle>
    <vehicle id="157863208#0.1590__4__background.4" type="background" depart="270.51" departLane="best">
        <route edges="157863208#0.1590 1106233488"/>
    </vehicle>
    <vehicle id="252712271#0.589__4__background.4" type="background" depart="271.72" departLane="best">
        <route edges="252712271#0.589 1106233488"/>
    </vehicle>
    <vehicle id="157863208#0.1590__4__background.5" type="background" depart="271.94" departLane="best">
        <route edges="157863208#0.1590 1106233488"/>
    </vehicle>
    <vehicle id="252712271#0.589__4__background.5" type="background" depart="273.39" departLane="best">
        <route edges="252712271#0.589 -157863208#1"/>
    </vehicle>
    <vehicle id="-1106233488.150__4__background.5" type="background" depart="277.22" departLane="best">
        <route edges="-1106233488.150 -252712271#1"/>
    </vehicle>
    <vehicle id="252712271#0.589__4__background.6" type="background" depart="277.41" departLane="best">
        <route edges="252712271#0.589 -157863208#1"/>
    </vehicle>
    <vehicle id="252712271#0.589__4__background.7" type="background" depart="277.44" departLane="best">
        <route edges="252712271#0.589 1106233488"/>
    </vehicle>
    <vehicle id="157863208#0.1590__4__background.6" type="background" depart="277.85" departLane="best">
        <route edges="157863208#0.1590 -252712271#1"/>
    </vehicle>
    <vehicle id="252712271#0.589__4__background.8" type="background" depart="279.01" departLane="best">
        <route edges="252712271#0.589 -157863208#1"/>
    </vehicle>
    <vehicle id="157863208#0.1590__4__background.7" type="background" depart="279.82" departLane="best">
        <route edges="157863208#0.1590 -252712271#1"/>
    </vehicle>
    <vehicle id="-1106233488.150__4__background.6" type="background" depart="281.40" departLane="best">
        <route edges="-1106233488.150 -157863208#1"/>
    </vehicle>
    <vehicle id="157863208#0.1590__4__background.8" type="background" depart="284.08" departLane="best">
        <route edges="157863208#0.1590 1106233488"/>
    </vehicle>
    <vehicle id="252712271#0.589__4__background.9" type="background" depart="284.76" departLane="best">
        <route edges="252712271#0.589 -157863208#1"/>
    </vehicle>
    <vehicle id="157863208#0.1590__4__background.9" type="background" depart="285.09" departLane="best">
        <route edges="157863208#0.1590 -252712271#1"/>
    </vehicle>
    <vehicle id="157863208#0.1590__4__background.10" type="background" depart="287.20" departLane="best">
        <route edges="157863208#0.1590 -252712271#1"/>
    </vehicle>
    <vehicle id="-1106233488.150__4__background.7" type="background" depart="290.50" departLane="best">
        <route edges="-1106233488.150 -157863208#1"/>
    </vehicle>
    <vehicle id="157863208#0.1590__4__background.11" type="background" depart="293.82" departLane="best">
        <route edges="157863208#0.1590 -252712271#1"/>
    </vehicle>
    <vehicle id="252712271#0.589__4__background.10" type="background" depart="296.58" departLane="best">
        <route edges="252712271#0.589 -157863208#1"/>
    </vehicle>
    <vehicle id="157863208#0.1590__4__background.12" type="background" depart="297.22" departLane="best">
        <route edges="157863208#0.1590 1106233488"/>
    </vehicle>
    <vehicle id="-1106233488.150__4__background.8" type="background" depart="297.53" departLane="best">
        <route edges="-1106233488.150 -252712271#1"/>
    </vehicle>
    <vehicle id="252712271#0.589__4__background.11" type="background" depart="297.56" departLane="best">
        <route edges="252712271#0.589 -157863208#1"/>
    </vehicle>
    <vehicle id="-1106233488.150__4__background.9" type="background" depart="299.25" departLane="best">
        <route edges="-1106233488.150 -252712271#1"/>
    </vehicle>
    <vehicle id="-1106233488.150__5__background.0" type="background" depart="303.44" departLane="best">
        <route edges="-1106233488.150 -252712271#1"/>
    </vehicle>
    <vehicle id="252712271#0.589__5__background.0" type="background" depart="303.47" departLane="best">
        <route edges="252712271#0.589 1106233488"/>
    </vehicle>
    <vehicle id="252712271#0.589__5__background.1" type="background" depart="305.34" departLane="best">
        <route edges="252712271#0.589 1106233488"/>
    </vehicle>
    <vehicle id="-1106233488.150__5__background.1" type="background" depart="306.85" departLane="best">
        <route edges="-1106233488.150 -252712271#1"/>
    </vehicle>
    <vehicle id="-1106233488.150__5__background.2" type="background" depart="307.40" departLane="best">
        <route edges="-1106233488.150 -157863208#1"/>
    </vehicle>
    <vehicle id="157863208#0.1590__5__background.0" type="background" depart="310.58" departLane="best">
        <route edges="157863208#0.1590 1106233488"/>
    </vehicle>
    <vehicle id="-1106233488.150__5__background.3" type="background" depart="310.71" departLane="best">
        <route edges="-1106233488.150 -157863208#1"/>
    </vehicle>
    <vehicle id="157863208#0.1590__5__background.1" type="background" depart="310.81" departLane="best">
        <route edges="157863208#0.1590 -252712271#1"/>
    </vehicle>
    <vehicle id="-1106233488.150__5__background.4" type="background" depart="313.00" departLane="best">
        <route edges="-1106233488.150 -252712271#1"/>
    </vehicle>
    <vehicle id="252712271#0.589__5__background.2" type="background" depart="313.15" departLane="best">
        <route edges="252712271#0.589 1106233488"/>
    </vehicle>
    <vehicle id="252712271#0.589__5__background.3" type="background" depart="313.62" departLane="best">
        <route edges="252712271#0.589 -157863208#1"/>
    </vehicle>
    <vehicle id="157863208#0.1590__5__background.2" type="background" depart="320.24" departLane="best">
        <route edges="157863208#0.1590 1106233488"/>
    </vehicle>
    <vehicle id="157863208#0.1590__5__background.3" type="background" depart="327.01" departLane="best">
        <route edges="157863208#0.1590 1106233488"/>
    </vehicle>
    <vehicle id="157863208#0.1590__5__background.4" type="background" depart="328.11" departLane="best">
        <route edges="157863208#0.1590 -252712271#1"/>
    </vehicle>
    <vehicle id="157863208#0.1590__5__background.5" type="background" depart="330.61" departLane="best">
        <route edges="157863208#0.1590 1106233488"/>
    </vehicle>
    <vehicle id="252712271#0.589__5__background.4" type="background" depart="330.73" departLane="best">
        <route edges="252712271#0.589 1106233488"/>
    </vehicle>
    <vehicle id="157863208#0.1590__5__background.6" type="background" depart="331.28" departLane="best">
        <route edges="157863208#0.1590 -252712271#1"/>
    </vehicle>
    <vehicle id="157863208#0.1590__5__background.7" type="background" depart="331.50" departLane="best">
        <route edges="157863208#0.1590 1106233488"/>
    </vehicle>
    <vehicle id="252712271#0.589__5__background.5" type="background" depart="332.85" departLane="best">
        <route edges="252712271#0.589 -157863208#1"/>
    </vehicle>
    <vehicle id="252712271#0.589__5__background.6" type="background" depart="333.56" departLane="best">
        <route edges="252712271#0.589 1106233488"/>
    </vehicle>
    <vehicle id="157863208#0.1590__5__background.8" type="background" depart="333.57" departLane="best">
        <route edges="157863208#0.1590 1106233488"/>
    </vehicle>
    <vehicle id="-1106233488.150__5__background.5" type="background" depart="339.75" departLane="best">
        <route edges="-1106233488.150 -252712271#1"/>
    </vehicle>
    <vehicle id="157863208#0.1590__5__background.9" type="background" depart="339.97" departLane="best">
        <route edges="157863208#0.1590 -252712271#1"/>
    </vehicle>
    <vehicle id="157863208#0.1590__5__background.10" type="background" depart="341.64" departLane="best">
        <route edges="157863208#0.1590 -252712271#1"/>
    </vehicle>
    <vehicle id="157863208#0.1590__5__background.11" type="background" depart="342.09" departLane="best">
        <route edges="157863208#0.1590 -252712271#1"/>
    </vehicle>
    <vehicle id="252712271#0.589__5__background.7" type="background" depart="342.32" departLane="best">
        <route edges="252712271#0.589 -157863208#1"/>
    </vehicle>
    <vehicle id="252712271#0.589__5__background.8" type="background" depart="344.33" departLane="best">
        <route edges="252712271#0.589 -157863208#1"/>
    </vehicle>
    <vehicle id="252712271#0.589__5__background.9" type="background" depart="345.20" departLane="best">
        <route edges="252712271#0.589 -157863208#1"/>
    </vehicle>
    <vehicle id="-1106233488.150__5__background.6" type="background" depart="345.69" departLane="best">
        <route edges="-1106233488.150 -157863208#1"/>
    </vehicle>
    <vehicle id="252712271#0.589__5__background.10" type="background" depart="345.79" departLane="best">
        <route edges="252712271#0.589 -157863208#1"/>
    </vehicle>