<?xml version="1.0" encoding="UTF-8"?>

<!-- generated on 2026-07-02T17:14:04.925412+08:00 by Eclipse SUMO jtrrouter 1.27.0
<jtrrouterConfiguration xmlns:xsi="http://www.w3.org/2001/XMLSchema-instance" xsi:noNamespaceSchemaLocation="http://sumo.dlr.de/xsd/jtrrouterConfiguration.xsd">

    <input>
        <net-file value="/home/wmn/code/research/SingleTSC_TranSimHub/junction_scenarios/Beijing_Beihuan/./networks/normal.net.xml"/>
        <route-files value="/home/wmn/code/research/SingleTSC_TranSimHub/junction_scenarios/Beijing_Beihuan/./testflow.trip.xml"/>
        <turn-ratio-files value="/home/wmn/code/research/SingleTSC_TranSimHub/junction_scenarios/Beijing_Beihuan/./testflow.turndefs.xml"/>
    </input>

    <output>
        <output-file value="/home/wmn/code/research/SingleTSC_TranSimHub/junction_scenarios/Beijing_Beihuan/./routes/random_perturbation.rou.xml"/>
    </output>

    <processing>
        <randomize-flows value="True"/>
        <accept-all-destinations value="True"/>
    </processing>

    <defaults>
        <departlane value="best"/>
    </defaults>

    <report>
        <no-warnings value="true"/>
    </report>

    <random_number>
        <seed value="777"/>
    </random_number>

</jtrrouterConfiguration>
-->

<routes xmlns:xsi="http://www.w3.org/2001/XMLSchema-instance" xsi:noNamespaceSchemaLocation="http://sumo.dlr.de/xsd/routes_file.xsd">
    <vType id="background" length="5.00" color="220,220,220" tau="1.0"/>
    <vehicle id="-1106233488.150__0__background.0" type="background" depart="0.03" departLane="best">
        <route edges="-1106233488.150 -252712271#1"/>
    </vehicle>
    <vehicle id="252712271#0.589__0__background.0" type="background" depart="0.84" departLane="best">
        <route edges="252712271#0.589 -157863208#1"/>
    </vehicle>
    <vehicle id="157863208#0.1590__0__background.0" type="background" depart="3.58" departLane="best">
        <route edges="157863208#0.1590 -252712271#1"/>
    </vehicle>
    <vehicle id="252712271#0.589__0__background.1" type="background" depart="4.16" departLane="best">
        <route edges="252712271#0.589 1106233488"/>
    </vehicle>
    <vehicle id="-1106233488.150__0__background.1" type="background" depart="4.54" departLane="best">
        <route edges="-1106233488.150 -252712271#1"/>
    </vehicle>
    <vehicle id="157863208#0.1590__0__background.1" type="background" depart="5.68" departLane="best">
        <route edges="157863208#0.1590 1106233488"/>
    </vehicle>
    <vehicle id="252712271#0.589__0__background.2" type="background" depart="5.99" departLane="best">
        <route edges="252712271#0.589 -157863208#1"/>
    </vehicle>
    <vehicle id="157863208#0.1590__0__background.2" type="background" depart="6.54" departLane="best">
        <route edges="157863208#0.1590 1106233488"/>
    </vehicle>
    <vehicle id="157863208#0.1590__0__background.3" type="background" depart="6.80" departLane="best">
        <route edges="157863208#0.1590 -252712271#1"/>
    </vehicle>
    <vehicle id="157863208#0.1590__0__background.4" type="background" depart="7.71" departLane="best">
        <route edges="157863208#0.1590 -252712271#1"/>
    </vehicle>
    <vehicle id="252712271#0.589__0__background.3" type="background" depart="7.95" departLane="best">
        <route edges="252712271#0.589 1106233488"/>
    </vehicle>
    <vehicle id="157863208#0.1590__0__background.5" type="background" depart="10.82" departLane="best">
        <route edges="157863208#0.1590 1106233488"/>
    </vehicle>
    <vehicle id="157863208#0.1590__0__background.6" type="background" depart="10.88" departLane="best">
        <route edges="157863208#0.1590 -252712271#1"/>
    </vehicle>
    <vehicle id="157863208#0.1590__0__background.7" type="background" depart="11.03" departLane="best">
        <route edges="157863208#0.1590 1106233488"/>
    </vehicle>
    <vehicle id="157863208#0.1590__0__background.8" type="background" depart="12.32" departLane="best">
        <route edges="157863208#0.1590 -252712271#1"/>
    </vehicle>
    <vehicle id="157863208#0.1590__0__background.9" type="background" depart="15.68" departLane="best">
        <route edges="157863208#0.1590 1106233488"/>
    </vehicle>
    <vehicle id="157863208#0.1590__0__background.10" type="background" depart="15.93" departLane="best">
        <route edges="157863208#0.1590 -252712271#1"/>
    </vehicle>
    <vehicle id="252712271#0.589__0__background.4" type="background" depart="16.75" departLane="best">
        <route edges="252712271#0.589 1106233488"/>
    </vehicle>
    <vehicle id="157863208#0.1590__0__background.11" type="background" depart="17.37" departLane="best">
        <route edges="157863208#0.1590 1106233488"/>
    </vehicle>
    <vehicle id="157863208#0.1590__0__background.12" type="background" depart="19.28" departLane="best">
        <route edges="157863208#0.1590 1106233488"/>
    </vehicle>
    <vehicle id="157863208#0.1590__0__background.13" type="background" depart="20.32" departLane="best">
        <route edges="157863208#0.1590 -252712271#1"/>
    </vehicle>
    <vehicle id="252712271#0.589__0__background.5" type="background" depart="23.35" departLane="best">
        <route edges="252712271#0.589 -157863208#1"/>
    </vehicle>
    <vehicle id="252712271#0.589__0__background.6" type="background" depart="25.22" departLane="best">
        <route edges="252712271#0.589 1106233488"/>
    </vehicle>
    <vehicle id="157863208#0.1590__0__background.14" type="background" depart="25.90" departLane="best">
        <route edges="157863208#0.1590 -252712271#1"/>
    </vehicle>
    <vehicle id="-1106233488.150__0__background.2" type="background" depart="26.23" departLane="best">
        <route edges="-1106233488.150 -252712271#1"/>
    </vehicle>
    <vehicle id="-1106233488.150__0__background.3" type="background" depart="26.40" departLane="best">
        <route edges="-1106233488.150 -252712271#1"/>
    </vehicle>
    <vehicle id="157863208#0.1590__0__background.15" type="background" depart="26.70" departLane="best">
        <route edges="157863208#0.1590 1106233488"/>
    </vehicle>
    <vehicle id="157863208#0.1590__0__background.16" type="background" depart="26.95" departLane="best">
        <route edges="157863208#0.1590 -252712271#1"/>
    </vehicle>
    <vehicle id="252712271#0.589__0__background.7" type="background" depart="28.29" departLane="best">
        <route edges="252712271#0.589 1106233488"/>
    </vehicle>
    <vehicle id="157863208#0.1590__0__background.17" type="background" depart="28.79" departLane="best">
        <route edges="157863208#0.1590 -252712271#1"/>
    </vehicle>
    <vehicle id="-1106233488.150__0__background.4" type="background" depart="30.89" departLane="best">
        <route edges="-1106233488.150 -157863208#1"/>
    </vehicle>
    <vehicle id="-1106233488.150__0__background.5" type="background" depart="31.08" departLane="best">
        <route edges="-1106233488.150 -252712271#1"/>
    </vehicle>
    <vehicle id="252712271#0.589__0__background.8" type="background" depart="33.66" departLane="best">
        <route edges="252712271#0.589 1106233488"/>
    </vehicle>
    <vehicle id="157863208#0.1590__0__background.18" type="background" depart="35.91" departLane="best">
        <route edges="157863208#0.1590 1106233488"/>
    </vehicle>
    <vehicle id="157863208#0.1590__0__background.19" type="background" depart="36.79" departLane="best">
        <route edges="157863208#0.1590 1106233488"/>
    </vehicle>
    <vehicle id="-1106233488.150__0__background.6" type="background" depart="39.15" departLane="best">
        <route edges="-1106233488.150 -252712271#1"/>
    </vehicle>
    <vehicle id="157863208#0.1590__0__background.20" type="background" depart="40.54" departLane="best">
        <route edges="157863208#0.1590 1106233488"/>
    </vehicle>
    <vehicle id="157863208#0.1590__0__background.21" type="background" depart="40.85" departLane="best">
        <route edges="157863208#0.1590 -252712271#1"/>
    </vehicle>
    <vehicle id="157863208#0.1590__0__background.22" type="background" depart="41.30" departLane="best">
        <route edges="157863208#0.1590 -252712271#1"/>
    </vehicle>
    <vehicle id="252712271#0.589__0__background.9" type="background" depart="43.19" departLane="best">
        <route edges="252712271#0.589 -157863208#1"/>
    </vehicle>
    <vehicle id="157863208#0.1590__0__background.23" type="background" depart="44.46" departLane="best">
        <route edges="157863208#0.1590 1106233488"/>
    </vehicle>
    <vehicle id="157863208#0.1590__0__background.24" type="background" depart="46.02" departLane="best">
        <route edges="157863208#0.1590 1106233488"/>
    </vehicle>
    <vehicle id="252712271#0.589__0__background.10" type="background" depart="46.02" departLane="best">
        <route edges="252712271#0.589 -157863208#1"/>
    </vehicle>
    <vehicle id="157863208#0.1590__0__background.25" type="background" depart="47.92" departLane="best">
        <route edges="157863208#0.1590 -252712271#1"/>
    </vehicle>
    <vehicle id="-1106233488.150__0__background.7" type="background" depart="48.14" departLane="best">
        <route edges="-1106233488.150 -157863208#1"/>
    </vehicle>
    <vehicle id="157863208#0.1590__0__background.26" type="background" depart="48.23" departLane="best">
        <route edges="157863208#0.1590 1106233488"/>
    </vehicle>
    <vehicle id="-1106233488.150__0__background.8" type="background" depart="49.14" departLane="best">
        <route edges="-1106233488.150 -252712271#1"/>
    </vehicle>
    <vehicle id="252712271#0.589__0__background.11" type="background" depart="51.52" departLane="best">
        <route edges="252712271#0.589 -157863208#1"/>
    </vehicle>
    <vehicle id="157863208#0.1590__0__background.27" type="background" depart="52.13" departLane="best">
        <route edges="157863208#0.1590 -252712271#1"/>
    </vehicle>
    <vehicle id="252712271#0.589__0__background.12" type="background" depart="53.45" departLane="best">
        <route edges="252712271#0.589 1106233488"/>
    </vehicle>
    <vehicle id="157863208#0.1590__0__background.28" type="background" depart="54.94" departLane="best">
        <route edges="157863208#0.1590 -252712271#1"/>
    </vehicle>
    <vehicle id="157863208#0.1590__0__background.29" type="background" depart="56.15" departLane="best">
        <route edges="157863208#0.1590 -252712271#1"/>
    </vehicle>
    <vehicle id="-1106233488.150__0__background.9" type="background" depart="57.89" departLane="best">
        <route edges="-1106233488.150 -157863208#1"/>
    </vehicle>
    <vehicle id="-1106233488.150__0__background.10" type="background" depart="59.78" departLane="best">
        <route edges="-1106233488.150 -157863208#1"/>
    </vehicle>
    <vehicle id="252712271#0.589__1__background.0" type="background" depart="60.09" departLane="best">
        <route edges="252712271#0.589 1106233488"/>
    </vehicle>
    <vehicle id="252712271#0.589__1__background.1" type="background" depart="60.19" departLane="best">
        <route edges="252712271#0.589 1106233488"/>
    </vehicle>
    <vehicle id="157863208#0.1590__1__background.0" type="background" depart="61.54" departLane="best">
        <route edges="157863208#0.1590 -252712271#1"/>
    </vehicle>
    <vehicle id="157863208#0.1590__1__background.1" type="background" depart="61.72" departLane="best">
        <route edges="157863208#0.1590 1106233488"/>
    </vehicle>
    <vehicle id="157863208#0.1590__1__background.2" type="background" depart="63.43" departLane="best">
        <route edges="157863208#0.1590 1106233488"/>
    </vehicle>
    <vehicle id="157863208#0.1590__1__background.3" type="background" depart="63.47" departLane="best">
        <route edges="157863208#0.1590 1106233488"/>
    </vehicle>
    <vehicle id="252712271#0.589__1__background.2" type="background" depart="64.84" departLane="best">
        <route edges="252712271#0.589 1106233488"/>
    </vehicle>
    <vehicle id="157863208#0.1590__1__background.4" type="background" depart="69.31" departLane="best">
        <route edges="157863208#0.1590 -252712271#1"/>
    </vehicle>
    <vehicle id="157863208#0.1590__1__background.5" type="background" depart="70.17" departLane="best">
        <route edges="157863208#0.1590 1106233488"/>
    </vehicle>
    <vehicle id="157863208#0.1590__1__background.6" type="background" depart="71.26" departLane="best">
        <route edges="157863208#0.1590 1106233488"/>
    </vehicle>
    <vehicle id="157863208#0.1590__1__background.7" type="background" depart="72.29" departLane="best">
        <route edges="157863208#0.1590 -252712271#1"/>
    </vehicle>
    <vehicle id="157863208#0.1590__1__background.8" type="background" depart="72.41" departLane="best">
        <route edges="157863208#0.1590 1106233488"/>
    </vehicle>
    <vehicle id="157863208#0.1590__1__background.9" type="background" depart="73.67" departLane="best">
        <route edges="157863208#0.1590 1106233488"/>
    </vehicle>
    <vehicle id="157863208#0.1590__1__background.10" type="background" depart="74.01" departLane="best">
        <route edges="157863208#0.1590 1106233488"/>
    </vehicle>
    <vehicle id="-1106233488.150__1__background.0" type="background" depart="74.36" departLane="best">
        <route edges="-1106233488.150 -252712271#1"/>
    </vehicle>
    <vehicle id="157863208#0.1590__1__background.11" type="background" depart="75.08" departLane="best">
        <route edges="157863208#0.1590 1106233488"/>
    </vehicle>
    <vehicle id="157863208#0.1590__1__background.12" type="background" depart="75.59" departLane="best">
        <route edges="157863208#0.1590 -252712271#1"/>
    </vehicle>
    <vehicle id="-1106233488.150__1__background.1" type="background" depart="76.26" departLane="best">
        <route edges="-1106233488.150 -252712271#1"/>
    </vehicle>
    <vehicle id="157863208#0.1590__1__background.13" type="background" depart="76.46" departLane="best">
        <route edges="157863208#0.1590 -252712271#1"/>
    </vehicle>
    <vehicle id="157863208#0.1590__1__background.14" type="background" depart="76.73" departLane="best">
        <route edges="157863208#0.1590 -252712271#1"/>
    </vehicle>
    <vehicle id="157863208#0.1590__1__background.15" type="background" depart="78.84" departLane="best">
        <route edges="157863208#0.1590 1106233488"/>
    </vehicle>
    <vehicle id="157863208#0.1590__1__background.16" type="background" depart="80.50" departLane="best">
        <route edges="157863208#0.1590 1106233488"/>
    </vehicle>
    <vehicle id="157863208#0.1590__1__background.17" type="background" depart="83.16" departLane="best">
        <route edges="157863208#0.1590 1106233488"/>
    </vehicle>
    <vehicle id="-1106233488.150__1__background.2" type="background" depart="84.69" departLane="best">
        <route edges="-1106233488.150 -157863208#1"/>
    </vehicle>
    <vehicle id="252712271#0.589__1__background.3" type="background" depart="85.80" departLane="best">
        <route edges="252712271#0.589 1106233488"/>
    </vehicle>
    <vehicle id="252712271#0.589__1__background.4" type="background" depart="85.86" departLane="best">
        <route edges="252712271#0.589 1106233488"/>
    </vehicle>
    <vehicle id="157863208#0.1590__1__background.18" type="background" depart="87.35" departLane="best">
        <route edges="157863208#0.1590 1106233488"/>
    </vehicle>
    <vehicle id="157863208#0.1590__1__background.19" type="background" depart="89.83" departLane="best">
        <route edges="157863208#0.1590 1106233488"/>
    </vehicle>
    <vehicle id="252712271#0.589__1__background.5" type="background" depart="91.85" departLane="best">
        <route edges="252712271#0.589 1106233488"/>
    </vehicle>
    <vehicle id="252712271#0.589__1__background.6" type="background" depart="95.70" departLane="best">
        <route edges="252712271#0.589 1106233488"/>
    </vehicle>
    <vehicle id="-1106233488.150__1__background.3" type="background" depart="97.85" departLane="best">
        <route edges="-1106233488.150 -157863208#1"/>
    </vehicle>
    <vehicle id="157863208#0.1590__1__background.20" type="background" depart="97.85" departLane="best">
        <route edges="157863208#0.1590 1106233488"/>
    </vehicle>
    <vehicle id="252712271#0.589__1__background.7" type="background" depart="99.52" departLane="best">
        <route edges="252712271#0.589 1106233488"/>
    </vehicle>
    <vehicle id="-1106233488.150__1__background.4" type="background" depart="99.82" departLane="best">
        <route edges="-1106233488.150 -252712271#1"/>
    </vehicle>
    <vehicle id="252712271#0.589__1__background.8" type="background" depart="102.11" departLane="best">
        <route edges="252712271#0.589 1106233488"/>
    </vehicle>
    <vehicle id="-1106233488.150__1__background.5" type="background" depart="102.53" departLane="best">
        <route edges="-1106233488.150 -157863208#1"/>
    </vehicle>
    <vehicle id="157863208#0.1590__1__background.21" type="background" depart="102.87" departLane="best">
        <route edges="157863208#0.1590 -252712271#1"/>
    </vehicle>
    <vehicle id="157863208#0.1590__1__background.22" type="background" depart="103.28" departLane="best">
        <route edges="157863208#0.1590 1106233488"/>
    </vehicle>
    <vehicle id="252712271#0.589__1__background.9" type="background" depart="103.32" departLane="best">
        <route edges="252712271#0.589 1106233488"/>
    </vehicle>
    <vehicle id="-1106233488.150__1__background.6" type="background" depart="103.99" departLane="best">
        <route edges="-1106233488.150 -252712271#1"/>
    </vehicle>
    <vehicle id="-1106233488.150__1__background.7" type="background" depart="104.08" departLane="best">
        <route edges="-1106233488.150 -157863208#1"/>
    </vehicle>
    <vehicle id="157863208#0.1590__1__background.23" type="background" depart="104.98" departLane="best">
        <route edges="157863208#0.1590 1106233488"/>
    </vehicle>
    <vehicle id="-1106233488.150__1__background.8" type="background" depart="105.08" departLane="best">
        <route edges="-1106233488.150 -157863208#1"/>
    </vehicle>
    <vehicle id="157863208#0.1590__1__background.24" type="background" depart="105.90" departLane="best">
        <route edges="157863208#0.1590 1106233488"/>
    </vehicle>
    <vehicle id="-1106233488.150__1__background.9" type="background" depart="107.20" departLane="best">
        <route edges="-1106233488.150 -157863208#1"/>
    </vehicle>
    <vehicle id="157863208#0.1590__1__background.25" type="background" depart="107.92" departLane="best">
        <route edges="157863208#0.1590 -252712271#1"/>
    </vehicle>
    <vehicle id="252712271#0.589__1__background.10" type="background" depart="110.44" departLane="best">
        <route edges="252712271#0.589 -157863208#1"/>
    </vehicle>
    <vehicle id="157863208#0.1590__1__background.26" type="background" depart="110.49" departLane="best">
        <route edges="157863208#0.1590 1106233488"/>
    </vehicle>
    <vehicle id="157863208#0.1590__1__background.27" type="background" depart="111.42" departLane="best">
        <route edges="157863208#0.1590 1106233488"/>
    </vehicle>
    <vehicle id="252712271#0.589__1__background.11" type="background" depart="112.24" departLane="best">
        <route edges="252712271#0.589 1106233488"/>
    </vehicle>
    <vehicle id="157863208#0.1590__1__background.28" type="background" depart="113.47" departLane="best">
        <route edges="157863208#0.1590 -252712271#1"/>
    </vehicle>
    <vehicle id="-1106233488.150__1__background.10" type="background" depart="113.82" departLane="best">
        <route edges="-1106233488.150 -252712271#1"/>
    </vehicle>
    <vehicle id="157863208#0.1590__1__background.29" type="background" depart="114.52" departLane="best">
        <route edges="157863208#0.1590 1106233488"/>
    </vehicle>
    <vehicle id="252712271#0.589__1__background.12" type="background" depart="118.72" departLane="best">
        <route edges="252712271#0.589 1106233488"/>
    </vehicle>
    <vehicle id="-1106233488.150__2__background.0" type="background" depart="120.02" departLane="best">
        <route edges="-1106233488.150 -157863208#1"/>
    </vehicle>
    <vehicle id="252712271#0.589__2__background.0" type="background" depart="120.29" departLane="best">
        <route edges="252712271#0.589 -157863208#1"/>
    </vehicle>
    <vehicle id="-1106233488.150__2__background.1" type="background" depart="121.48" departLane="best">
        <route edges="-1106233488.150 -252712271#1"/>
    </vehicle>
    <vehicle id="252712271#0.589__2__background.1" type="background" depart="122.31" departLane="best">
        <route edges="252712271#0.589 -157863208#1"/>
    </vehicle>
    <vehicle id="157863208#0.1590__2__background.0" type="background" depart="128.46" departLane="best">
        <route edges="157863208#0.1590 1106233488"/>
    </vehicle>
    <vehicle id="157863208#0.1590__2__background.1" type="background" depart="128.53" departLane="best">
        <route edges="157863208#0.1590 1106233488"/>
    </vehicle>
    <vehicle id="-1106233488.150__2__background.2" type="background" depart="129.59" departLane="best">
        <route edges="-1106233488.150 -157863208#1"/>
    </vehicle>
    <vehicle id="157863208#0.1590__2__background.2" type="background" depart="134.15" departLane="best">
        <route edges="157863208#0.1590 -252712271#1"/>
    </vehicle>
    <vehicle id="-1106233488.150__2__background.3" type="background" depart="136.61" departLane="best">
        <route edges="-1106233488.150 -157863208#1"/>
    </vehicle>
    <vehicle id="252712271#0.589__2__background.2" type="background" depart="137.86" departLane="best">
        <route edges="252712271#0.589 -157863208#1"/>
    </vehicle>
    <vehicle id="-1106233488.150__2__background.4" type="background" depart="139.11" departLane="best">
        <route edges="-1106233488.150 -252712271#1"/>
    </vehicle>
    <vehicle id="-1106233488.150__2__background.5" type="background" depart="139.40" departLane="best">
        <route edges="-1106233488.150 -157863208#1"/>
    </vehicle>
    <vehicle id="157863208#0.1590__2__background.3" type="background" depart="139.56" departLane="best">
        <route edges="157863208#0.1590 -252712271#1"/>
    </vehicle>
    <vehicle id="252712271#0.589__2__background.3" type="background" depart="143.38" departLane="best">
        <route edges="252712271#0.589 1106233488"/>
    </vehicle>
    <vehicle id="252712271#0.589__2__background.4" type="background" depart="144.00" departLane="best">
        <route edges="252712271#0.589 -157863208#1"/>
    </vehicle>
    <vehicle id="157863208#0.1590__2__background.4" type="background" depart="145.38" departLane="best">
        <route edges="157863208#0.1590 -252712271#1"/>
    </vehicle>
    <vehicle id="252712271#0.589__2__background.5" type="background" depart="145.85" departLane="best">
        <route edges="252712271#0.589 1106233488"/>
    </vehicle>
    <vehicle id="157863208#0.1590__2__background.5" type="background" depart="148.54" departLane="best">
        <route edges="157863208#0.1590 1106233488"/>
    </vehicle>
    <vehicle id="-1106233488.150__2__background.6" type="background" depart="150.15" departLane="best">
        <route edges="-1106233488.150 -157863208#1"/>
    </vehicle>
    <vehicle id="157863208#0.1590__2__background.6" type="background" depart="150.51" departLane="best">
        <route edges="157863208#0.1590 -252712271#1"/>
    </vehicle>
    <vehicle id="252712271#0.589__2__background.6" type="background" depart="151.41" departLane="best">
        <route edges="252712271#0.589 -157863208#1"/>
    </vehicle>
    <vehicle id="157863208#0.1590__2__background.7" type="background" depart="151.76" departLane="best">
        <route edges="157863208#0.1590 1106233488"/>
    </vehicle>
    <vehicle id="157863208#0.1590__2__background.8" type="background" depart="151.94" departLane="best">
        <route edges="157863208#0.1590 1106233488"/>
    </vehicle>
    <vehicle id="157863208#0.1590__2__background.9" type="background" depart="152.29" departLane="best">
        <route edges="157863208#0.1590 -252712271#1"/>
    </vehicle>
    <vehicle id="252712271#0.589__2__background.7" type="background" depart="153.35" departLane="best">
        <route edges="252712271#0.589 -157863208#1"/>
    </vehicle>
    <vehicle id="252712271#0.589__2__background.8" type="background" depart="153.66" departLane="best">
        <route edges="252712271#0.589 1106233488"/>
    </vehicle>
    <vehicle id="252712271#0.589__2__background.9" type="background" depart="154.35" departLane="best">
        <route edges="252712271#0.589 -157863208#1"/>
    </vehicle>
    <vehicle id="157863208#0.1590__2__background.10" type="background" depart="155.15" departLane="best">
        <route edges="157863208#0.1590 1106233488"/>
    </vehicle>
    <vehicle id="-1106233488.150__2__background.7" type="background" depart="159.77" departLane="best">
        <route edges="-1106233488.150 -252712271#1"/>
    </vehicle>
    <vehicle id="252712271#0.589__2__background.10" type="background" depart="162.62" departLane="best">
        <route edges="252712271#0.589 1106233488"/>
    </vehicle>
    <vehicle id="252712271#0.589__2__background.11" type="background" depart="163.50" departLane="best">
        <route edges="252712271#0.589 -157863208#1"/>
    </vehicle>
    <vehicle id="252712271#0.589__2__background.12" type="background" depart="164.42" departLane="best">
        <route edges="252712271#0.589 -157863208#1"/>
    </vehicle>
    <vehicle id="157863208#0.1590__2__background.11" type="background" depart="165.09" departLane="best">
        <route edges="157863208#0.1590 1106233488"/>
    </vehicle>
    <vehicle id="-1106233488.150__2__background.8" type="background" depart="168.77" departLane="best">
        <route edges="-1106233488.150 -252712271#1"/>
    </vehicle>
    <vehicle id="157863208#0.1590__2__background.12" type="background" depart="169.49" departLane="best">
        <route edges="157863208#0.1590 -252712271#1"/>
    </vehicle>
    <vehicle id="-1106233488.150__2__background.9" type="background" depart="171.40" departLane="best">
        <route edges="-1106233488.150 -157863208#1"/>
    </vehicle>
    <vehicle id="-1106233488.150__2__background.10" type="background" depart="173.90" departLane="best">
        <route edges="-1106233488.150 -252712271#1"/>
    </vehicle>
    <vehicle id="157863208#0.1590__2__background.13" type="background" depart="177.22" departLane="best">
        <route edges="157863208#0.1590 1106233488"/>
    </vehicle>
    <vehicle id="157863208#0.1590__3__background.0" type="background" depart="181.00" departLane="best">
        <route edges="157863208#0.1590 1106233488"/>
    </vehicle>
    <vehicle id="252712271#0.589__3__background.0" type="background" depart="183.60" departLane="best">
        <route edges="252712271#0.589 1106233488"/>
    </vehicle>
    <vehicle id="157863208#0.1590__3__background.1" type="background" depart="185.41" departLane="best">
        <route edges="157863208#0.1590 1106233488"/>
    </vehicle>
    <vehicle id="252712271#0.589__3__background.1" type="background" depart="188.79" departLane="best">
        <route edges="252712271#0.589 1106233488"/>
    </vehicle>
    <vehicle id="252712271#0.589__3__background.2" type="background" depart="188.82" departLane="best">
        <route edges="252712271#0.589 1106233488"/>
    </vehicle>
    <vehicle id="-1106233488.150__3__background.0" type="background" depart="189.26" departLane="best">
        <route edges="-1106233488.150 -157863208#1"/>
    </vehicle>
    <vehicle id="157863208#0.1590__3__background.2" type="background" depart="189.59" departLane="best">
        <route edges="157863208#0.1590 1106233488"/>
    </vehicle>
    <vehicle id="157863208#0.1590__3__background.3" type="background" depart="193.75" departLane="best">
        <route edges="157863208#0.1590 -252712271#1"/>
    </vehicle>
    <vehicle id="157863208#0.1590__3__background.4" type="background" depart="197.09" departLane="best">
        <route edges="157863208#0.1590 1106233488"/>
    </vehicle>
    <vehicle id="-1106233488.150__3__background.1" type="background" depart="197.41" departLane="best">
        <route edges="-1106233488.150 -157863208#1"/>
    </vehicle>
    <vehicle id="252712271#0.589__3__background.3" type="background" depart="198.82" departLane="best">
        <route edges="252712271#0.589 -157863208#1"/>
    </vehicle>
    <vehicle id="252712271#0.589__3__background.4" type="background" depart="201.15" departLane="best">
        <route edges="252712271#0.589 1106233488"/>
    </vehicle>
    <vehicle id="252712271#0.589__3__background.5" type="background" depart="201.25" departLane="best">
        <route edges="252712271#0.589 -157863208#1"/>
    </vehicle>
    <vehicle id="-1106233488.150__3__background.2" type="background" depart="202.40" departLane="best">
        <route edges="-1106233488.150 -157863208#1"/>
    </vehicle>
    <vehicle id="-1106233488.150__3__background.3" type="background" depart="204.84" departLane="best">
        <route edges="-1106233488.150 -157863208#1"/>
    </vehicle>
    <vehicle id="157863208#0.1590__3__background.5" type="background" depart="205.18" departLane="best">
        <route edges="157863208#0.1590 1106233488"/>
    </vehicle>
    <vehicle id="-1106233488.150__3__background.4" type="background" depart="207.54" departLane="best">
        <route edges="-1106233488.150 -252712271#1"/>
    </vehicle>
    <vehicle id="157863208#0.1590__3__background.6" type="background" depart="213.16" departLane="best">
        <route edges="157863208#0.1590 -252712271#1"/>
    </vehicle>
    <vehicle id="-1106233488.150__3__background.5" type="background" depart="214.31" departLane="best">
        <route edges="-1106233488.150 -157863208#1"/>
    </vehicle>