<?xml version="1.0" encoding="UTF-8"?>

<!-- generated on 2026-07-02T17:14:35.330563+08:00 by Eclipse SUMO jtrrouter 1.27.0
<jtrrouterConfiguration xmlns:xsi="http://www.w3.org/2001/XMLSchema-instance" xsi:noNamespaceSchemaLocation="http://sumo.dlr.de/xsd/jtrrouterConfiguration.xsd">

    <input>
        <net-file value="/home/wmn/code/research/SingleTSC_TranSimHub/junction_scenarios/Chengdu_Guanghua/./networks/normal.net.xml"/>
        <route-files value="/home/wmn/code/research/SingleTSC_TranSimHub/junction_scenarios/Chengdu_Guanghua/./testflow.trip.xml"/>
        <turn-ratio-files value="/home/wmn/code/research/SingleTSC_TranSimHub/junction_scenarios/Chengdu_Guanghua/./testflow.turndefs.xml"/>
    </input>

    <output>
        <output-file value="/home/wmn/code/research/SingleTSC_TranSimHub/junction_scenarios/Chengdu_Guanghua/./routes/low_density.rou.xml"/>
    </output>

    <processing>
        <randomize-flows value="True"/>
        <accept-all-destinations value="True"/>
    </processing>

    <defaults>
        <departlane value="best"/>
    </defaults>

    <report>
        <no-warnings value="true"/>
    </report>

    <random_number>
        <seed value="777"/>
    </random_number>

</jtrrouterConfiguration>
-->

<routes xmlns:xsi="http://www.w3.org/2001/XMLSchema-instance" xsi:noNamespaceSchemaLocation="http://sumo.dlr.de/xsd/routes_file.xsd">
    <vType id="background" length="5.00" color="220,220,220" tau="1.0"/>
    <vehicle id="170446483#0.356__0__background.0" type="background" depart="3.58" departLane="best">
        <route edges="170446483#0.356 170446483#2"/>
    </vehicle>
    <vehicle id="806740830#0.118__0__background.0" type="background" depart="5.68" departLane="best">
        <route edges="806740830#0.118 806740830#1"/>
    </vehicle>
    <vehicle id="885943869#0.263__0__background.0" type="background" depart="6.54" departLane="best">
        <route edges="885943869#0.263 170446483#2"/>
    </vehicle>
    <vehicle id="885943869#0.263__0__background.1" type="background" depart="6.80" departLane="best">
        <route edges="885943869#0.263 806740830#1"/>
    </vehicle>
    <vehicle id="806740830#0.118__0__background.1" type="background" depart="7.71" departLane="best">
        <route edges="806740830#0.118 806740830#1"/>
    </vehicle>
    <vehicle id="806740830#0.118__0__background.2" type="background" depart="10.82" departLane="best">
        <route edges="806740830#0.118 885943869#2"/>
    </vehicle>
    <vehicle id="170446483#0.356__0__background.1" type="background" depart="10.88" departLane="best">
        <route edges="170446483#0.356 -885943869#0"/>
    </vehicle>
    <vehicle id="170446483#0.356__0__background.2" type="background" depart="11.03" departLane="best">
        <route edges="170446483#0.356 -885943869#0"/>
    </vehicle>
    <vehicle id="885943869#0.263__0__background.2" type="background" depart="12.32" departLane="best">
        <route edges="885943869#0.263 170446483#2"/>
    </vehicle>
    <vehicle id="806740830#0.118__0__background.3" type="background" depart="15.68" departLane="best">
        <route edges="806740830#0.118 885943869#2"/>
    </vehicle>
    <vehicle id="-885943869#2.897__0__background.0" type="background" depart="15.93" departLane="best">
        <route edges="-885943869#2.897 -885943869#0"/>
    </vehicle>
    <vehicle id="170446483#0.356__0__background.3" type="background" depart="17.37" departLane="best">
        <route edges="170446483#0.356 170446483#2"/>
    </vehicle>
    <vehicle id="885943869#0.263__0__background.3" type="background" depart="19.28" departLane="best">
        <route edges="885943869#0.263 885943869#2"/>
    </vehicle>
    <vehicle id="885943869#0.263__0__background.4" type="background" depart="20.32" departLane="best">
        <route edges="885943869#0.263 885943869#2"/>
    </vehicle>
    <vehicle id="170446483#0.356__0__background.4" type="background" depart="25.90" departLane="best">
        <route edges="170446483#0.356 885943869#2"/>
    </vehicle>
    <vehicle id="-885943869#2.897__0__background.1" type="background" depart="26.70" departLane="best">
        <route edges="-885943869#2.897 -885943869#0"/>
    </vehicle>
    <vehicle id="885943869#0.263__0__background.5" type="background" depart="26.95" departLane="best">
        <route edges="885943869#0.263 170446483#2"/>
    </vehicle>
    <vehicle id="170446483#0.356__0__background.5" type="background" depart="28.79" departLane="best">
        <route edges="170446483#0.356 -885943869#0"/>
    </vehicle>
    <vehicle id="806740830#0.118__0__background.4" type="background" depart="35.91" departLane="best">
        <route edges="806740830#0.118 -885943869#0"/>
    </vehicle>
    <vehicle id="-885943869#2.897__0__background.2" type="background" depart="36.79" departLane="best">
        <route edges="-885943869#2.897 806740830#1"/>
    </vehicle>
    <vehicle id="-885943869#2.897__0__background.3" type="background" depart="40.54" departLane="best">
        <route edges="-885943869#2.897 806740830#1"/>
    </vehicle>
    <vehicle id="885943869#0.263__0__background.6" type="background" depart="40.85" departLane="best">
        <route edges="885943869#0.263 885943869#2"/>
    </vehicle>
    <vehicle id="885943869#0.263__0__background.7" type="background" depart="41.30" departLane="best">
        <route edges="885943869#0.263 885943869#2"/>
    </vehicle>
    <vehicle id="170446483#0.356__0__background.6" type="background" depart="44.46" departLane="best">
        <route edges="170446483#0.356 170446483#2"/>
    </vehicle>
    <vehicle id="806740830#0.118__0__background.5" type="background" depart="46.02" departLane="best">
        <route edges="806740830#0.118 885943869#2"/>
    </vehicle>
    <vehicle id="-885943869#2.897__0__background.4" type="background" depart="47.92" departLane="best">
        <route edges="-885943869#2.897 -885943869#0"/>
    </vehicle>
    <vehicle id="806740830#0.118__0__background.6" type="background" depart="48.23" departLane="best">
        <route edges="806740830#0.118 806740830#1"/>
    </vehicle>
    <vehicle id="-885943869#2.897__0__background.5" type="background" depart="52.13" departLane="best">
        <route edges="-885943869#2.897 -885943869#0"/>
    </vehicle>
    <vehicle id="170446483#0.356__0__background.7" type="background" depart="54.94" departLane="best">
        <route edges="170446483#0.356 170446483#2"/>
    </vehicle>
    <vehicle id="806740830#0.118__0__background.7" type="background" depart="56.15" departLane="best">
        <route edges="806740830#0.118 806740830#1"/>
    </vehicle>
    <vehicle id="806740830#0.118__1__background.0" type="background" depart="60.03" departLane="best">
        <route edges="806740830#0.118 -885943869#0"/>
    </vehicle>
    <vehicle id="-885943869#2.897__1__background.0" type="background" depart="60.84" departLane="best">
        <route edges="-885943869#2.897 170446483#2"/>
    </vehicle>
    <vehicle id="-885943869#2.897__1__background.1" type="background" depart="64.16" departLane="best">
        <route edges="-885943869#2.897 806740830#1"/>
    </vehicle>
    <vehicle id="885943869#0.263__1__background.0" type="background" depart="64.54" departLane="best">
        <route edges="885943869#0.263 170446483#2"/>
    </vehicle>
    <vehicle id="170446483#0.356__1__background.0" type="background" depart="65.99" departLane="best">
        <route edges="170446483#0.356 -885943869#0"/>
    </vehicle>
    <vehicle id="170446483#0.356__1__background.1" type="background" depart="67.95" departLane="best">
        <route edges="170446483#0.356 885943869#2"/>
    </vehicle>
    <vehicle id="806740830#0.118__1__background.1" type="background" depart="69.31" departLane="best">
        <route edges="806740830#0.118 885943869#2"/>
    </vehicle>
    <vehicle id="806740830#0.118__1__background.2" type="background" depart="71.26" departLane="best">
        <route edges="806740830#0.118 885943869#2"/>
    </vehicle>
    <vehicle id="806740830#0.118__1__background.3" type="background" depart="75.08" departLane="best">
        <route edges="806740830#0.118 806740830#1"/>
    </vehicle>
    <vehicle id="-885943869#2.897__1__background.2" type="background" depart="76.75" departLane="best">
        <route edges="-885943869#2.897 -885943869#0"/>
    </vehicle>
    <vehicle id="-885943869#2.897__1__background.3" type="background" depart="83.35" departLane="best">
        <route edges="-885943869#2.897 806740830#1"/>
    </vehicle>
    <vehicle id="170446483#0.356__1__background.2" type="background" depart="85.22" departLane="best">
        <route edges="170446483#0.356 -885943869#0"/>
    </vehicle>
    <vehicle id="885943869#0.263__1__background.1" type="background" depart="86.23" departLane="best">
        <route edges="885943869#0.263 885943869#2"/>
    </vehicle>
    <vehicle id="885943869#0.263__1__background.2" type="background" depart="86.40" departLane="best">
        <route edges="885943869#0.263 170446483#2"/>
    </vehicle>
    <vehicle id="170446483#0.356__1__background.3" type="background" depart="88.29" departLane="best">
        <route edges="170446483#0.356 170446483#2"/>
    </vehicle>
    <vehicle id="885943869#0.263__1__background.3" type="background" depart="90.89" departLane="best">
        <route edges="885943869#0.263 885943869#2"/>
    </vehicle>
    <vehicle id="885943869#0.263__1__background.4" type="background" depart="91.08" departLane="best">
        <route edges="885943869#0.263 885943869#2"/>
    </vehicle>
    <vehicle id="170446483#0.356__1__background.4" type="background" depart="93.66" departLane="best">
        <route edges="170446483#0.356 885943869#2"/>
    </vehicle>
    <vehicle id="885943869#0.263__1__background.5" type="background" depart="99.15" departLane="best">
        <route edges="885943869#0.263 885943869#2"/>
    </vehicle>
    <vehicle id="170446483#0.356__1__background.5" type="background" depart="103.19" departLane="best">
        <route edges="170446483#0.356 885943869#2"/>
    </vehicle>
    <vehicle id="170446483#0.356__1__background.6" type="background" depart="106.02" departLane="best">
        <route edges="170446483#0.356 -885943869#0"/>
    </vehicle>
    <vehicle id="170446483#0.356__1__background.7" type="background" depart="108.14" departLane="best">
        <route edges="170446483#0.356 -885943869#0"/>
    </vehicle>
    <vehicle id="806740830#0.118__1__background.4" type="background" depart="109.14" departLane="best">
        <route edges="806740830#0.118 806740830#1"/>
    </vehicle>
    <vehicle id="806740830#0.118__1__background.5" type="background" depart="111.42" departLane="best">
        <route edges="806740830#0.118 885943869#2"/>
    </vehicle>
    <vehicle id="-885943869#2.897__1__background.4" type="background" depart="111.52" departLane="best">
        <route edges="-885943869#2.897 -885943869#0"/>
    </vehicle>
    <vehicle id="-885943869#2.897__1__background.5" type="background" depart="113.45" departLane="best">
        <route edges="-885943869#2.897 806740830#1"/>
    </vehicle>
    <vehicle id="806740830#0.118__1__background.6" type="background" depart="113.47" departLane="best">
        <route edges="806740830#0.118 806740830#1"/>
    </vehicle>
    <vehicle id="806740830#0.118__1__background.7" type="background" depart="114.52" departLane="best">
        <route edges="806740830#0.118 -885943869#0"/>
    </vehicle>
    <vehicle id="885943869#0.263__1__background.6" type="background" depart="117.89" departLane="best">
        <route edges="885943869#0.263 170446483#2"/>
    </vehicle>
    <vehicle id="885943869#0.263__1__background.7" type="background" depart="119.78" departLane="best">
        <route edges="885943869#0.263 885943869#2"/>
    </vehicle>
    <vehicle id="-885943869#2.897__2__background.0" type="background" depart="121.54" departLane="best">
        <route edges="-885943869#2.897 -885943869#0"/>
    </vehicle>
    <vehicle id="885943869#0.263__2__background.0" type="background" depart="121.72" departLane="best">
        <route edges="885943869#0.263 806740830#1"/>
    </vehicle>
    <vehicle id="170446483#0.356__2__background.0" type="background" depart="123.43" departLane="best">
        <route edges="170446483#0.356 -885943869#0"/>
    </vehicle>
    <vehicle id="885943869#0.263__2__background.1" type="background" depart="123.47" departLane="best">
        <route edges="885943869#0.263 885943869#2"/>
    </vehicle>
    <vehicle id="885943869#0.263__2__background.2" type="background" depart="130.17" departLane="best">
        <route edges="885943869#0.263 885943869#2"/>
    </vehicle>
    <vehicle id="885943869#0.263__2__background.3" type="background" depart="132.29" departLane="best">
        <route edges="885943869#0.263 885943869#2"/>
    </vehicle>
    <vehicle id="170446483#0.356__2__background.1" type="background" depart="132.41" departLane="best">
        <route edges="170446483#0.356 170446483#2"/>
    </vehicle>
    <vehicle id="170446483#0.356__2__background.2" type="background" depart="133.67" departLane="best">
        <route edges="170446483#0.356 -885943869#0"/>
    </vehicle>
    <vehicle id="806740830#0.118__2__background.0" type="background" depart="134.01" departLane="best">
        <route edges="806740830#0.118 806740830#1"/>
    </vehicle>
    <vehicle id="-885943869#2.897__2__background.1" type="background" depart="135.59" departLane="best">
        <route edges="-885943869#2.897 -885943869#0"/>
    </vehicle>
    <vehicle id="170446483#0.356__2__background.3" type="background" depart="136.46" departLane="best">
        <route edges="170446483#0.356 885943869#2"/>
    </vehicle>
    <vehicle id="170446483#0.356__2__background.4" type="background" depart="136.73" departLane="best">
        <route edges="170446483#0.356 885943869#2"/>
    </vehicle>
    <vehicle id="-885943869#2.897__2__background.2" type="background" depart="138.84" departLane="best">
        <route edges="-885943869#2.897 170446483#2"/>
    </vehicle>
    <vehicle id="170446483#0.356__2__background.5" type="background" depart="140.50" departLane="best">
        <route edges="170446483#0.356 885943869#2"/>
    </vehicle>
    <vehicle id="806740830#0.118__2__background.1" type="background" depart="143.16" departLane="best">
        <route edges="806740830#0.118 806740830#1"/>
    </vehicle>
    <vehicle id="806740830#0.118__2__background.2" type="background" depart="145.86" departLane="best">
        <route edges="806740830#0.118 806740830#1"/>
    </vehicle>
    <vehicle id="885943869#0.263__2__background.4" type="background" depart="147.35" departLane="best">
        <route edges="885943869#0.263 806740830#1"/>
    </vehicle>
    <vehicle id="-885943869#2.897__2__background.3" type="background" depart="149.83" departLane="best">
        <route edges="-885943869#2.897 806740830#1"/>
    </vehicle>
    <vehicle id="806740830#0.118__2__background.3" type="background" depart="151.85" departLane="best">
        <route edges="806740830#0.118 885943869#2"/>
    </vehicle>
    <vehicle id="806740830#0.118__2__background.4" type="background" depart="155.70" departLane="best">
        <route edges="806740830#0.118 -885943869#0"/>
    </vehicle>
    <vehicle id="170446483#0.356__2__background.6" type="background" depart="157.85" departLane="best">
        <route edges="170446483#0.356 170446483#2"/>
    </vehicle>
    <vehicle id="-885943869#2.897__2__background.4" type="background" depart="162.87" departLane="best">
        <route edges="-885943869#2.897 806740830#1"/>
    </vehicle>
    <vehicle id="-885943869#2.897__2__background.5" type="background" depart="163.28" departLane="best">
        <route edges="-885943869#2.897 -885943869#0"/>
    </vehicle>
    <vehicle id="885943869#0.263__2__background.5" type="background" depart="164.98" departLane="best">
        <route edges="885943869#0.263 806740830#1"/>
    </vehicle>
    <vehicle id="-885943869#2.897__2__background.6" type="background" depart="165.90" departLane="best">
        <route edges="-885943869#2.897 170446483#2"/>
    </vehicle>
    <vehicle id="885943869#0.263__2__background.6" type="background" depart="167.92" departLane="best">
        <route edges="885943869#0.263 806740830#1"/>
    </vehicle>
    <vehicle id="806740830#0.118__2__background.5" type="background" depart="170.44" departLane="best">
        <route edges="806740830#0.118 885943869#2"/>
    </vehicle>
    <vehicle id="885943869#0.263__2__background.7" type="background" depart="170.49" departLane="best">
        <route edges="885943869#0.263 170446483#2"/>
    </vehicle>
    <vehicle id="806740830#0.118__2__background.6" type="background" depart="172.24" departLane="best">
        <route edges="806740830#0.118 806740830#1"/>
    </vehicle>
    <vehicle id="-885943869#2.897__3__background.0" type="background" depart="180.09" departLane="best">
        <route edges="-885943869#2.897 170446483#2"/>
    </vehicle>
    <vehicle id="-885943869#2.897__3__background.1" type="background" depart="180.19" departLane="best">
        <route edges="-885943869#2.897 170446483#2"/>
    </vehicle>
    <vehicle id="-885943869#2.897__3__background.2" type="background" depart="184.84" departLane="best">
        <route edges="-885943869#2.897 806740830#1"/>
    </vehicle>
    <vehicle id="806740830#0.118__3__background.0" type="background" depart="188.46" departLane="best">
        <route edges="806740830#0.118 885943869#2"/>
    </vehicle>
    <vehicle id="806740830#0.118__3__background.1" type="background" depart="188.53" departLane="best">
        <route edges="806740830#0.118 806740830#1"/>
    </vehicle>
    <vehicle id="885943869#0.263__3__background.0" type="background" depart="194.36" departLane="best">
        <route edges="885943869#0.263 806740830#1"/>
    </vehicle>
    <vehicle id="885943869#0.263__3__background.1" type="background" depart="196.26" departLane="best">
        <route edges="885943869#0.263 170446483#2"/>
    </vehicle>
    <vehicle id="806740830#0.118__3__background.2" type="background" depart="199.56" departLane="best">
        <route edges="806740830#0.118 806740830#1"/>
    </vehicle>
    <vehicle id="170446483#0.356__3__background.0" type="background" depart="204.69" departLane="best">
        <route edges="170446483#0.356 170446483#2"/>
    </vehicle>
    <vehicle id="-885943869#2.897__3__background.3" type="background" depart="205.80" departLane="best">
        <route edges="-885943869#2.897 170446483#2"/>
    </vehicle>
    <vehicle id="806740830#0.118__3__background.3" type="background" depart="208.54" departLane="best">
        <route edges="806740830#0.118 -885943869#0"/>
    </vehicle>
    <vehicle id="885943869#0.263__3__background.2" type="background" depart="210.51" departLane="best">
        <route edges="885943869#0.263 170446483#2"/>
    </vehicle>
    <vehicle id="806740830#0.118__3__background.4" type="background" depart="211.94" departLane="best">
        <route edges="806740830#0.118 -885943869#0"/>
    </vehicle>
    <vehicle id="806740830#0.118__3__background.5" type="background" depart="212.29" departLane="best">
        <route edges="806740830#0.118 806740830#1"/>
    </vehicle>
    <vehicle id="885943869#0.263__3__background.3" type="background" depart="217.85" departLane="best">
        <route edges="885943869#0.263 806740830#1"/>
    </vehicle>
    <vehicle id="-885943869#2.897__3__background.4" type="background" depart="219.52" departLane="best">
        <route edges="-885943869#2.897 170446483#2"/>
    </vehicle>
    <vehicle id="885943869#0.263__3__background.4" type="background" depart="219.82" departLane="best">
        <route edges="885943869#0.263 170446483#2"/>
    </vehicle>
    <vehicle id="-885943869#2.897__3__background.5" type="background" depart="222.11" departLane="best">
        <route edges="-885943869#2.897 806740830#1"/>
    </vehicle>
    <vehicle id="170446483#0.356__3__background.1" type="background" depart="222.53" departLane="best">
        <route edges="170446483#0.356 -885943869#0"/>
    </vehicle>
    <vehicle id="170446483#0.356__3__background.2" type="background" depart="223.32" departLane="best">
        <route edges="170446483#0.356 170446483#2"/>
    </vehicle>
    <vehicle id="170446483#0.356__3__background.3" type="background" depart="223.99" departLane="best">
        <route edges="170446483#0.356 885943869#2"/>
    </vehicle>
    <vehicle id="170446483#0.356__3__background.4" type="background" depart="224.08" departLane="best">
        <route edges="170446483#0.356 885943869#2"/>
    </vehicle>
    <vehicle id="170446483#0.356__3__background.5" type="background" depart="225.08" departLane="best">
        <route edges="170446483#0.356 -885943869#0"/>
    </vehicle>
    <vehicle id="885943869#0.263__3__background.5" type="background" depart="225.09" departLane="best">
        <route edges="885943869#0.263 170446483#2"/>
    </vehicle>
    <vehicle id="170446483#0.356__3__background.6" type="background" depart="227.20" departLane="best">
        <route edges="170446483#0.356 -885943869#0"/>
    </vehicle>
    <vehicle id="806740830#0.118__3__background.6" type="background" depart="229.49" departLane="best">
        <route edges="806740830#0.118 806740830#1"/>
    </vehicle>
    <vehicle id="885943869#0.263__3__background.6" type="background" depart="233.82" departLane="best">
        <route edges="885943869#0.263 885943869#2"/>
    </vehicle>
    <vehicle id="885943869#0.263__3__background.7" type="background" depart="237.22" departLane="best">
        <route edges="885943869#0.263 170446483#2"/>
    </vehicle>
    <vehicle id="-885943869#2.897__3__background.6" type="background" depart="238.72" departLane="best">
        <route edges="-885943869#2.897 170446483#2"/>
    </vehicle>
    <vehicle id="-885943869#2.897__4__background.0" type="background" depart="240.29" departLane="best">
        <route edges="-885943869#2.897 170446483#2"/>
    </vehicle>
    <vehicle id="806740830#0.118__4__background.0" type="background" depart="243.44" departLane="best">
        <route edges="806740830#0.118 -885943869#0"/>
    </vehicle>
    <vehicle id="885943869#0.263__4__background.0" type="background" depart="243.47" departLane="best">
        <route edges="885943869#0.263 885943869#2"/>
    </vehicle>
    <vehicle id="885943869#0.263__4__background.1" type="background" depart="245.34" departLane="best">
        <route edges="885943869#0.263 806740830#1"/>
    </vehicle>
    <vehicle id="806740830#0.118__4__background.1" type="background" depart="246.85" departLane="best">
        <route edges="806740830#0.118 806740830#1"/>
    </vehicle>
    <vehicle id="170446483#0.356__4__background.0" type="background" depart="250.58" departLane="best">
        <route edges="170446483#0.356 170446483#2"/>
    </vehicle>
    <vehicle id="806740830#0.118__4__background.2" type="background" depart="250.71" departLane="best">
        <route edges="806740830#0.118 -885943869#0"/>
    </vehicle>
    <vehicle id="170446483#0.356__4__background.1" type="background" depart="250.81" departLane="best">
        <route edges="170446483#0.356 885943869#2"/>
    </vehicle>
    <vehicle id="806740830#0.118__4__background.3" type="background" depart="253.15" departLane="best">
        <route edges="806740830#0.118 885943869#2"/>
    </vehicle>
    <vehicle id="885943869#0.263__4__background.2" type="background" depart="253.62" departLane="best">
        <route edges="885943869#0.263 170446483#2"/>
    </vehicle>
    <vehicle id="-885943869#2.897__4__background.1" type="background" depart="254.15" departLane="best">
        <route edges="-885943869#2.897 170446483#2"/>
    </vehicle>
    <vehicle id="-885943869#2.897__4__background.2" type="background" depart="257.86" departLane="best">
        <route edges="-885943869#2.897 170446483#2"/>
    </vehicle>
    <vehicle id="-885943869#2.897__4__background.3" type="background" depart="264.00" departLane="best">
        <route edges="-885943869#2.897 806740830#1"/>
    </vehicle>
    <vehicle id="-885943869#2.897__4__background.4" type="background" depart="265.38" departLane="best">
        <route edges="-885943869#2.897 170446483#2"/>
    </vehicle>
    <vehicle id="170446483#0.356__4__background.2" type="background" depart="267.01" departLane="best">
        <route edges="170446483#0.356 170446483#2"/>
    </vehicle>
    <vehicle id="170446483#0.356__4__background.3" type="background" depart="268.11" departLane="best">
        <route edges="170446483#0.356 885943869#2"/>
    </vehicle>
    <vehicle id="885943869#0.263__4__background.3" type="background" depart="270.73" departLane="best">
        <route edges="885943869#0.263 885943869#2"/>
    </vehicle>
    <vehicle id="170446483#0.356__4__background.4" type="background" depart="271.28" departLane="best">
        <route edges="170446483#0.356 170446483#2"/>
    </vehicle>
    <vehicle id="170446483#0.356__4__background.5" type="background" depart="271.50" departLane="best">
        <route edges="170446483#0.356 170446483#2"/>
    </vehicle>
    <vehicle id="-885943869#2.897__4__background.5" type="background" depart="271.76" departLane="best">
        <route edges="-885943869#2.897 170446483#2"/>
    </vehicle>
    <vehicle id="806740830#0.118__4__background.4" type="background" depart="272.85" departLane="best">
        <route edges="806740830#0.118 806740830#1"/>
    </vehicle>
    <vehicle id="806740830#0.118__4__background.5" type="background" depart="273.56" departLane="best">
        <route edges="806740830#0.118 885943869#2"/>
    </vehicle>
    <vehicle id="170446483#0.356__4__background.6" type="background" depart="273.57" departLane="best">
        <route edges="170446483#0.356 170446483#2"/>
    </vehicle>
    <vehicle id="-885943869#2.897__4__background.6" type="background" depart="275.15" departLane="best">
        <route edges="-885943869#2.897 -885943869#0"/>
    </vehicle>
    <vehicle id="170446483#0.356__4__background.7" type="background" depart="281.64" departLane="best">
        <route edges="170446483#0.356 170446483#2"/>
    </vehicle>
    <vehicle id="806740830#0.118__4__background.6" type="background" depart="282.32" departLane="best">
        <route edges="806740830#0.118 -885943869#0"/>
    </vehicle>
    <vehicle id="885943869#0.263__4__background.4" type="background" depart="284.33" departLane="best">
        <route edges="885943869#0.263 806740830#1"/>
    </vehicle>
    <vehicle id="885943869#0.263__4__background.5" type="background" depart="285.20" departLane="best">
        <route edges="885943869#0.263 170446483#2"/>
    </vehicle>
    <vehicle id="885943869#0.263__4__background.6" type="background" depart="285.79" departLane="best">
        <route edges="885943869#0.263 170446483#2"/>
    </vehicle>
    <vehicle id="885943869#0.263__4__background.7" type="background" depart="293.97" departLane="best">
        <route edges="885943869#0.263 170446483#2"/>
    </vehicle>
    <vehicle id="170446483#0.356__5__background.0" type="background" depart="304.98" departLane="best">
        <route edges="170446483#0.356 -885943869#0"/>
    </vehicle>
    <vehicle id="170446483#0.356__5__background.1" type="background" depart="305.02" departLane="best">
        <route edges="170446483#0.356 -885943869#0"/>
    </vehicle>
    <vehicle id="-885943869#2.897__5__background.0" type="background" depart="307.40" departLane="best">
        <route edges="-885943869#2.897 -885943869#0"/>
    </vehicle>
    <vehicle id="170446483#0.356__5__background.2" type="background" depart="309.68" departLane="best">
        <route edges="170446483#0.356 885943869#2"/>
    </vehicle>
    <vehicle id="-885943869#2.897__5__background.1" type="background" depart="313.00" departLane="best">
        <route edges="-885943869#2.897 806740830#1"/>
    </vehicle>
    <vehicle id="885943869#0.263__5__background.0" type="background" depart="313.90" departLane="best">
        <route edges="885943869#0.263 170446483#2"/>
    </vehicle>
    <vehicle id="885943869#0.263__5__background.1" type="background" depart="324.06" departLane="best">
        <route edges="885943869#0.263 806740830#1"/>
    </vehicle>
    <vehicle id="885943869#0.263__5__background.2" type="background" depart="326.84" departLane="best">
        <route edges="885943869#0.263 885943869#2"/>
    </vehicle>
    <vehicle id="806740830#0.118__5__background.0" type="background" depart="327.25" departLane="best">
        <route edges="806740830#0.118 806740830#1"/>
    </vehicle>
    <vehicle id="170446483#0.356__5__background.3" type="background" depart="331.63" departLane="best">
        <route edges="170446483#0.356 885943869#2"/>
    </vehicle>
    <vehicle id="885943869#0.263__5__background.3" type="background" depart="332.07" departLane="best">
        <route edges="885943869#0.263 885943869#2"/>
    </vehicle>
    <vehicle id="170446483#0.356__5__background.4" type="background" depart="333.36" departLane="best">
        <route edges="170446483#0.356 -885943869#0"/>
    </vehicle>
    <vehicle id="170446483#0.356__5__background.5" type="background" depart="333.90" departLane="best">
        <route edges="170446483#0.356 885943869#2"/>
    </vehicle>
    <vehicle id="885943869#0.263__5__background.4" type="background" depart="335.18" departLane="best">
        <route edges="885943869#0.263 806740830#1"/>
    </vehicle>
    <vehicle id="170446483#0.356__5__background.6" type="background" depart="339.12" departLane="best">
        <route edges="170446483#0.356 -885943869#0"/>
    </vehicle>
    <vehicle id="885943869#0.263__5__background.5" type="background" depart="339.24" departLane="best">
        <route edges="885943869#0.263 885943869#2"/>
    </vehicle>
    <vehicle id="-885943869#2.897__5__background.2" type="background" depart="339.75" departLane="best">
        <route edges="-885943869#2.897 170446483#2"/>
    </vehicle>
    <vehicle id="806740830#0.118__5__background.1" type="background" depart="341.94" departLane="best">